#------------------------------------------------------------------------------
#$Date: 2024-10-11 03:11:44 +0300 (Fri, 11 Oct 2024) $
#$Revision: 295418 $
#$URL: file:///home/coder/svn-repositories/cod/cif/1/57/28/1572856.cif $
#------------------------------------------------------------------------------
#
# This file is available in the Crystallography Open Database (COD),
# http://www.crystallography.net/
#
# All data on this site have been placed in the public domain by the
# contributors.
#
data_1572856
loop_
_publ_author_name
'Zheng, Minling'
'Liu, Yubo'
'Zhang, Qifu'
'Li, Wenjing'
'Zhang, Yong'
'Feng, Guangxue'
'Hu, Yating'
'Huang, Shaoming'
_publ_section_title
;
 Dual metal centers within a water-stable Co/Ni bimetallic
 metal-triazolate framework contribute to durable photocatalysis for water
 treatment.
;
_journal_name_full               Nanoscale
_journal_paper_doi               10.1039/D4NR03940H
_journal_year                    2024
_chemical_formula_sum            'C24 H24 N36 Ni3'
_chemical_formula_weight         992.81
_chemical_name_common            Ni-MET
_space_group_IT_number           227
_space_group_name_Hall           '-F 4vw 2vw 3'
_space_group_name_H-M_alt        'F d -3 m :2'
_symmetry_cell_setting           cubic
_audit_update_record
;
2024-08-24 deposited with the CCDC.	2024-10-10 downloaded from the CCDC.
;
_cell_angle_alpha                90.000000
_cell_angle_beta                 90.000000
_cell_angle_gamma                90.000000
_cell_formula_units_Z            8
_cell_length_a                   17.165300
_cell_length_b                   17.165300
_cell_length_c                   17.165300
_cell_measurement_temperature    300
_cell_volume                     5057.713
_diffrn_ambient_pressure         100
_diffrn_ambient_temperature      300
_diffrn_measurement_device_type  'SmartLabTM 9kW'
_diffrn_radiation_polarisn_ratio 0.7000
_diffrn_radiation_probe          x-ray
_diffrn_radiation_type           'Cu K\a'
_pd_instr_location               ' ?'
_pd_meas_2theta_range_inc        0.02000
_pd_meas_2theta_range_max        79.98000
_pd_meas_2theta_range_min        5.00000
_pd_proc_2theta_range_inc        0.02000
_pd_proc_2theta_range_max        80.11782
_pd_proc_2theta_range_min        5.13782
_pd_proc_info_excluded_regions   ' ?'
_pd_proc_ls_background_function
;
Background function: "chebyschev-1" function with 36 terms:
    13149(24), 90(27), -754(28), 846(13), -777(10), 180(15), 
    65(18), -184(18), 32(17), 182(14), -249(9), 26(9), 126(12), 
    -185(13), 107(15), -55(14), 27(11), 32(9), -38(8), -41(10), 
    16(11), 99(11), -72(10), 48(8), 4(8), 6(9), 34(8), -68(9), 
    26(8), 12(8), -8(7), 3(9), 31(6), -3(8), -7(8), -0(7), 
;
_pd_proc_ls_pref_orient_corr
;
Simple spherical harmonic correction Order = 34
    Coefficients:  0:0:C(4,1) = 2.7(5); 0:0:C(6,1) = -1.1(5); 
    0:0:C(8,1) = -4.9(15); 0:0:C(10,1) = 3.2(7); 0:0:C(12,1) = -12.9(15); 
    0:0:C(12,2) = 10.7(12); 0:0:C(14,1) = 6.9(8); 0:0:C(16,1) = -13.4(17); 
    0:0:C(16,2) = 10.3(6); 0:0:C(18,1) = -13.2(22); 0:0:C(18,2) = 11.2(24); 
    0:0:C(20,1) = 1.3(18); 0:0:C(20,2) = -3.6(5); 0:0:C(22,1) = -1.3(25); 
    0:0:C(22,2) = -11.5(9); 0:0:C(24,1) = 21(4); 0:0:C(24,2) = 4.4(10); 
    0:0:C(24,3) = -9(3); 0:0:C(26,1) = -7(5); 0:0:C(26,2) = 0.6(10); 
    0:0:C(28,1) = -17(3); 0:0:C(28,2) = 15.2(13); 0:0:C(28,3) = 9.2(22); 
    0:0:C(30,1) = -2.4(28); 0:0:C(30,2) = 10.1(7); 0:0:C(30,3) = 2(4); 
    0:0:C(32,1) = 4(4); 0:0:C(32,2) = 8(3); 0:0:C(32,3) = 2.3(15); 
    0:0:C(34,1) = -3(3); 0:0:C(34,2) = 0.3(7); 0:0:C(34,3) = 6(9); 
;
_pd_proc_ls_profile_function
;
Finger-Cox-Jephcoat function parameters U, V, W, X, Y, SH/L:
  peak variance(Gauss) = Utan(Th)^2^+Vtan(Th)+W:
  peak HW(Lorentz) = X/cos(Th)+Ytan(Th); SH/L = S/L+H/L
  U, V, W in (centideg)^2^, X & Y in centideg
    -7.859(12)e4, 2.64(24)e3, 1.5(4)e2, 80.4(17), 457(30), 0.00305(22), 

;
_pd_proc_ls_prof_R_factor        0.00889
_pd_proc_ls_prof_wR_expected     0.00838
_pd_proc_ls_prof_wR_factor       0.01144
_pd_proc_number_of_points        3750
_pd_spec_mounting                ' ?'
_refine_ls_R_Fsqd_factor         0.31951
_reflns_d_resolution_high        1.202
_reflns_d_resolution_low         9.910
_reflns_limit_h_max              14
_reflns_limit_h_min              1
_reflns_limit_k_max              10
_reflns_limit_k_min              0
_reflns_limit_l_max              8
_reflns_limit_l_min              0
_reflns_number_total             98
_cod_data_source_file            d4nr03940h2.cif
_cod_data_source_block           Ni-MET
_cod_original_cell_volume        5057.713472
_cod_original_sg_symbol_H-M      'F d -3 m'
_cod_database_code               1572856
_refine_ls_r_f_factor            0.09699
_gsas_proc_ls_prof_r_b_factor    0.01001
_gsas_proc_ls_prof_wr_b_factor   0.01235
loop_
_space_group_symop_operation_xyz
'x, y, z'
'-x, -y, -z'
'-x+3/4, -y+1/4, z+1/2'
'x+1/4, y+3/4, -z+1/2'
'-x+1/4, y+1/2, -z+3/4'
'x+3/4, -y+1/2, z+1/4'
'x+1/2, -y+3/4, -z+1/4'
'-x+1/2, y+1/4, z+3/4'
'z, x, y'
'-z, -x, -y'
'z+1/2, -x+3/4, -y+1/4'
'-z+1/2, x+1/4, y+3/4'
'-z+3/4, -x+1/4, y+1/2'
'z+1/4, x+3/4, -y+1/2'
'-z+1/4, x+1/2, -y+3/4'
'z+3/4, -x+1/2, y+1/4'
'y, z, x'
'-y, -z, -x'
'-y+1/4, z+1/2, -x+3/4'
'y+3/4, -z+1/2, x+1/4'
'y+1/2, -z+3/4, -x+1/4'
'-y+1/2, z+1/4, x+3/4'
'-y+3/4, -z+1/4, x+1/2'
'y+1/4, z+3/4, -x+1/2'
'y+3/4, x+1/4, -z+1/2'
'-y+1/4, -x+3/4, z+1/2'
'-y, -x, -z'
'y, x, z'
'y+1/4, -x+1/2, z+3/4'
'-y+3/4, x+1/2, -z+1/4'
'-y+1/2, x+3/4, z+1/4'
'y+1/2, -x+1/4, -z+3/4'
'x+3/4, z+1/4, -y+1/2'
'-x+1/4, -z+3/4, y+1/2'
'-x+1/2, z+3/4, y+1/4'
'x+1/2, -z+1/4, -y+3/4'
'-x, -z, -y'
'x, z, y'
'x+1/4, -z+1/2, y+3/4'
'-x+3/4, z+1/2, -y+1/4'
'z+3/4, y+1/4, -x+1/2'
'-z+1/4, -y+3/4, x+1/2'
'z+1/4, -y+1/2, x+3/4'
'-z+3/4, y+1/2, -x+1/4'
'-z+1/2, y+3/4, x+1/4'
'z+1/2, -y+1/4, -x+3/4'
'-z, -y, -x'
'z, y, x'
'x, y+1/2, z+1/2'
'-x, -y+1/2, -z+1/2'
'-x+3/4, -y+3/4, z'
'x+1/4, y+1/4, -z'
'-x+1/4, y, -z+1/4'
'x+3/4, -y, z+3/4'
'x+1/2, -y+1/4, -z+3/4'
'-x+1/2, y+3/4, z+1/4'
'z, x+1/2, y+1/2'
'-z, -x+1/2, -y+1/2'
'z+1/2, -x+1/4, -y+3/4'
'-z+1/2, x+3/4, y+1/4'
'-z+3/4, -x+3/4, y'
'z+1/4, x+1/4, -y'
'-z+1/4, x, -y+1/4'
'z+3/4, -x, y+3/4'
'y, z+1/2, x+1/2'
'-y, -z+1/2, -x+1/2'
'-y+1/4, z, -x+1/4'
'y+3/4, -z, x+3/4'
'y+1/2, -z+1/4, -x+3/4'
'-y+1/2, z+3/4, x+1/4'
'-y+3/4, -z+3/4, x'
'y+1/4, z+1/4, -x'
'y+3/4, x+3/4, -z'
'-y+1/4, -x+1/4, z'
'-y, -x+1/2, -z+1/2'
'y, x+1/2, z+1/2'
'y+1/4, -x, z+1/4'
'-y+3/4, x, -z+3/4'
'-y+1/2, x+1/4, z+3/4'
'y+1/2, -x+3/4, -z+1/4'
'x+3/4, z+3/4, -y'
'-x+1/4, -z+1/4, y'
'-x+1/2, z+1/4, y+3/4'
'x+1/2, -z+3/4, -y+1/4'
'-x, -z+1/2, -y+1/2'
'x, z+1/2, y+1/2'
'x+1/4, -z, y+1/4'
'-x+3/4, z, -y+3/4'
'z+3/4, y+3/4, -x'
'-z+1/4, -y+1/4, x'
'z+1/4, -y, x+1/4'
'-z+3/4, y, -x+3/4'
'-z+1/2, y+1/4, x+3/4'
'z+1/2, -y+3/4, -x+1/4'
'-z, -y+1/2, -x+1/2'
'z, y+1/2, x+1/2'
'x+1/2, y, z+1/2'
'-x+1/2, -y, -z+1/2'
'-x+1/4, -y+1/4, z'
'x+3/4, y+3/4, -z'
'-x+3/4, y+1/2, -z+1/4'
'x+1/4, -y+1/2, z+3/4'
'x, -y+3/4, -z+3/4'
'-x, y+1/4, z+1/4'
'z+1/2, x, y+1/2'
'-z+1/2, -x, -y+1/2'
'z, -x+3/4, -y+3/4'
'-z, x+1/4, y+1/4'
'-z+1/4, -x+1/4, y'
'z+3/4, x+3/4, -y'
'-z+3/4, x+1/2, -y+1/4'
'z+1/4, -x+1/2, y+3/4'
'y+1/2, z, x+1/2'
'-y+1/2, -z, -x+1/2'
'-y+3/4, z+1/2, -x+1/4'
'y+1/4, -z+1/2, x+3/4'
'y, -z+3/4, -x+3/4'
'-y, z+1/4, x+1/4'
'-y+1/4, -z+1/4, x'
'y+3/4, z+3/4, -x'
'y+1/4, x+1/4, -z'
'-y+3/4, -x+3/4, z'
'-y+1/2, -x, -z+1/2'
'y+1/2, x, z+1/2'
'y+3/4, -x+1/2, z+1/4'
'-y+1/4, x+1/2, -z+3/4'
'-y, x+3/4, z+3/4'
'y, -x+1/4, -z+1/4'
'x+1/4, z+1/4, -y'
'-x+3/4, -z+3/4, y'
'-x, z+3/4, y+3/4'
'x, -z+1/4, -y+1/4'
'-x+1/2, -z, -y+1/2'
'x+1/2, z, y+1/2'
'x+3/4, -z+1/2, y+1/4'
'-x+1/4, z+1/2, -y+3/4'
'z+1/4, y+1/4, -x'
'-z+3/4, -y+3/4, x'
'z+3/4, -y+1/2, x+1/4'
'-z+1/4, y+1/2, -x+3/4'
'-z, y+3/4, x+3/4'
'z, -y+1/4, -x+1/4'
'-z+1/2, -y, -x+1/2'
'z+1/2, y, x+1/2'
'x+1/2, y+1/2, z'
'-x+1/2, -y+1/2, -z'
'-x+1/4, -y+3/4, z+1/2'
'x+3/4, y+1/4, -z+1/2'
'-x+3/4, y, -z+3/4'
'x+1/4, -y, z+1/4'
'x, -y+1/4, -z+1/4'
'-x, y+3/4, z+3/4'
'z+1/2, x+1/2, y'
'-z+1/2, -x+1/2, -y'
'z, -x+1/4, -y+1/4'
'-z, x+3/4, y+3/4'
'-z+1/4, -x+3/4, y+1/2'
'z+3/4, x+1/4, -y+1/2'
'-z+3/4, x, -y+3/4'
'z+1/4, -x, y+1/4'
'y+1/2, z+1/2, x'
'-y+1/2, -z+1/2, -x'
'-y+3/4, z, -x+3/4'
'y+1/4, -z, x+1/4'
'y, -z+1/4, -x+1/4'
'-y, z+3/4, x+3/4'
'-y+1/4, -z+3/4, x+1/2'
'y+3/4, z+1/4, -x+1/2'
'y+1/4, x+3/4, -z+1/2'
'-y+3/4, -x+1/4, z+1/2'
'-y+1/2, -x+1/2, -z'
'y+1/2, x+1/2, z'
'y+3/4, -x, z+3/4'
'-y+1/4, x, -z+1/4'
'-y, x+1/4, z+1/4'
'y, -x+3/4, -z+3/4'
'x+1/4, z+3/4, -y+1/2'
'-x+3/4, -z+1/4, y+1/2'
'-x, z+1/4, y+1/4'
'x, -z+3/4, -y+3/4'
'-x+1/2, -z+1/2, -y'
'x+1/2, z+1/2, y'
'x+3/4, -z, y+3/4'
'-x+1/4, z, -y+1/4'
'z+1/4, y+3/4, -x+1/2'
'-z+3/4, -y+1/4, x+1/2'
'z+3/4, -y, x+3/4'
'-z+1/4, y, -x+1/4'
'-z, y+1/4, x+1/4'
'z, -y+3/4, -x+3/4'
'-z+1/2, -y+1/2, -x'
'z+1/2, y+1/2, x'
loop_
_atom_site_label
_atom_site_occupancy
_atom_site_fract_x
_atom_site_fract_y
_atom_site_fract_z
_atom_site_adp_type
_atom_site_U_iso_or_equiv
_atom_site_type_symbol
H 1.0 0.932190 0.817810 0.580600 Uiso ? H
Ni1 1.0 0.000000 0.000000 0.000000 Uiso ? Ni
Ni2 1.0 0.125000 0.125000 0.125000 Uiso ? Ni
N1 1.0 0.670900 0.290360 0.579100 Uiso ? N
C1 1.0 0.654210 0.367800 0.595790 Uiso ? C
N2 1.0 0.625000 0.244960 0.625000 Uiso ? N
loop_
_atom_type_symbol
_atom_type_number_in_cell
_atom_type_scat_Cromer_Mann_a1
_atom_type_scat_Cromer_Mann_a2
_atom_type_scat_Cromer_Mann_a3
_atom_type_scat_Cromer_Mann_a4
_atom_type_scat_Cromer_Mann_b1
_atom_type_scat_Cromer_Mann_b2
_atom_type_scat_Cromer_Mann_b3
_atom_type_scat_Cromer_Mann_b4
_atom_type_scat_Cromer_Mann_c
_atom_type_scat_length_neutron
_atom_type_scat_source
_atom_type_scat_dispersion_real
_atom_type_scat_dispersion_imag
_atom_type_scat_dispersion_source
C 192 2.31 1.02 1.5886 0.865 20.8439 10.2075 0.5687 51.6512 0.2156 0.6648
https://github.com/AdvancedPhotonSource/GSAS-II/blob/master/GSASII/atmdata.py
0.018 0.009
https://github.com/AdvancedPhotonSource/GSAS-II/blob/master/GSASII/atmdata.py
H 192 0.493 0.3229 0.1402 0.0408 10.5109 26.1257 3.1424 57.7997 0.003 -0.3741
https://github.com/AdvancedPhotonSource/GSAS-II/blob/master/GSASII/atmdata.py
0.000 0.000
https://github.com/AdvancedPhotonSource/GSAS-II/blob/master/GSASII/atmdata.py
N 288 12.2126 3.1322 2.0125 1.1663 0.0057 9.8933 28.9975 0.5826 -11.529 0.936
https://github.com/AdvancedPhotonSource/GSAS-II/blob/master/GSASII/atmdata.py
0.031 0.018
https://github.com/AdvancedPhotonSource/GSAS-II/blob/master/GSASII/atmdata.py
Ni+2 24 11.4166 7.4005 5.3442 0.9773 3.6766 0.2449 8.873 22.1626 0.8614 1.03
https://github.com/AdvancedPhotonSource/GSAS-II/blob/master/GSASII/atmdata.py
-3.004 0.509
https://github.com/AdvancedPhotonSource/GSAS-II/blob/master/GSASII/atmdata.py
loop_
_diffrn_radiation_wavelength
_diffrn_radiation_wavelength_wt
_diffrn_radiation_wavelength_id
1.54050 1.0 1
1.54430 0.5000 2
loop_
_geom_angle_atom_site_label_1
_geom_angle_atom_site_label_2
_geom_angle_atom_site_label_3
_geom_angle
_geom_angle_site_symmetry_1
_geom_angle_site_symmetry_2
_geom_angle_site_symmetry_3
_geom_angle_publ_flag
H H H 149(5) 67_645 1_555 181_666 yes
N1 N1 C1 89(4) 40_665 1_555 40_665 yes
N1 C1 C1 140(3) 40_665 1_555 14_555 yes
N1 C1 C1 122(6) 40_665 1_555 29_566 yes
C1 C1 C1 24(4) 14_555 1_555 29_566 yes
N1 C1 C1 91(4) 40_665 1_555 40_665 yes
C1 C1 C1 60 14_555 1_555 40_665 yes
C1 C1 C1 36(4) 29_566 1_555 40_665 yes
N1 C1 C1 150.7(28) 40_665 1_555 56_554 yes
C1 C1 C1 36(4) 14_555 1_555 56_554 yes
C1 C1 C1 60 29_566 1_555 56_554 yes
C1 C1 C1 96(4) 40_665 1_555 56_554 yes
N1 C1 C1 139(3) 40_665 1_555 165_455 yes
C1 C1 C1 60 14_555 1_555 165_455 yes
C1 C1 C1 84(4) 29_566 1_555 165_455 yes
C1 C1 C1 120 40_665 1_555 165_455 yes
C1 C1 C1 24(4) 56_554 1_555 165_455 yes
loop_
_geom_bond_atom_site_label_1
_geom_bond_atom_site_label_2
_geom_bond_distance
_geom_bond_site_symmetry_1
_geom_bond_site_symmetry_2
_geom_bond_publ_flag
H H 0.7(4) 1_555 67_656 yes
H H 1.1(4) 1_555 181_666 yes
Ni3 N2 2.05907 1_555 51_544 yes
Ni3 N2 2.05907 1_555 75_555 yes
Ni3 N2 2.05907 1_555 97_454 yes
Ni3 N2 2.05907 1_555 121_555 yes
Ni3 N2 2.05907 1_555 146_445 yes
Ni3 N2 2.05907 1_555 170_555 yes
N1 N1 0.57(19) 1_555 40_555 yes
N1 C1 1.58(4) 1_555 1_555 yes
N1 C1 1.478(28) 1_555 40_555 yes
N1 N2 1.68(8) 1_555 1_555 yes
C1 N1 1.58(4) 1_555 1_555 yes
C1 N1 1.478(28) 1_555 40_555 yes
C1 C1 1.25(3) 1_555 14_555 yes
C1 C1 1.087(30) 1_555 29_555 yes
C1 C1 0.52(8) 1_555 40_555 yes
C1 C1 1.087(30) 1_555 56_555 yes
C1 C1 0.73(8) 1_555 165_555 yes
C1 N2 1.81(3) 1_555 40_555 yes
N2 Ni3 2.05907 1_555 97_555 yes
N2 N1 1.68(8) 1_555 1_555 yes
N2 N1 1.68(8) 1_555 14_555 yes
N2 C1 1.81(3) 1_555 29_555 yes
N2 C1 1.81(3) 1_555 40_555 yes
loop_
_pd_meas_intensity_total
_pd_calc_intensity_total
_pd_proc_intensity_bkg_calc
_pd_proc_ls_weight
10803.95996 10963.7273 10724.00269 0.00009255865
10947.62988 10953.72045 10711.56889 0.00009134397
11148.32031 10947.19314 10702.57684 0.00008969961
10672.25977 10943.78755 10696.66774 0.00009370087
10946.55957 10943.1713 10693.50855 0.0000913529
10960.62988 10945.03671 10692.79065 0.00009123563
11090 10949.09901 10694.22851 0.00009017133
11010.69043 10955.09549 10697.55844 0.00009082083
10956.2002 10962.78391 10702.53739 0.00009127252
11022.70996 10971.94177 10708.94181 0.00009072179
11010.98047 10982.36472 10716.56653 0.00009081843
11081.7002 10993.8665 10725.22371 0.00009023886
11065.07031 11006.2756 10734.74185 0.00009037448
11063.62012 11019.43732 10744.96484 0.00009038633
11122.24023 11033.21121 10755.75098 0.00008990994
10973.20996 11047.47011 10766.97216 0.00009113104
11032.49023 11062.09993 10778.51304 0.00009064137
11262.84961 11076.9985 10790.27016 0.00008878748
11172.87012 11092.07431 10802.15128 0.00008950252
10933.46973 11107.24704 10814.0746 0.00009146227
11154.46973 11122.44588 10825.96807 0.00008965016
10824 11137.60919 10837.76874 0.00009238729
11117.83008 11152.68387 10849.42215 0.00008994561
11169.41016 11167.62453 10860.88171 0.00008953024
11383.13965 11182.39356 10872.10812 0.00008784923
11194.25977 11196.95961 10883.06889 0.0000893315
11165.42969 11211.29821 10893.73776 0.00008956216
11312.03027 11225.39483 10904.09426 0.00008840146
11214.05957 11239.22678 10914.12324 0.00008917377
11197.5 11252.78986 10923.8144 0.00008930565
11332.26953 11266.08015 10933.16195 0.00008824358
11109.34961 11279.09748 10942.16414 0.00009001427
11258.05957 11291.84567 10950.82296 0.00008882525
11359.9502 11304.33186 10959.14372 0.00008802855
11234.4502 11316.56639 10967.13479 0.00008901192
11270.13965 11328.56461 10974.80724 0.00008873005
11337.37012 11340.33716 10982.17458 0.00008820388
11299.51953 11351.90436 10989.25244 0.00008849934
11279.04004 11363.28574 10996.05839 0.00008866003
11376.21973 11374.50277 11002.61159 0.00008790266
11356.61035 11385.57828 11008.93266 0.00008805444
11418.32031 11396.53649 11015.04341 0.00008757856
11181.99023 11407.40262 11020.96667 0.00008942952
11487.63965 11418.20287 11026.72606 0.00008705008
11289.92969 11428.96404 11032.34587 0.00008857451
11407.79004 11439.71363 11037.85086 0.0000876594
11391.91016 11450.47948 11043.26613 0.00008778159
11631.13965 11461.28972 11048.61696 0.0000859761
11590.75 11472.17263 11053.9287 0.00008627569
11509.75 11483.15673 11059.22664 0.00008688286
11392.33984 11494.26996 11064.5359 0.00008777828
11406.30957 11505.54091 11069.88133 0.00008767078
11336.08984 11516.99695 11075.28742 0.00008821384
11665.23047 11528.66608 11080.77821 0.00008572484
11459.88965 11540.57499 11086.37722 0.00008726088
11473.13965 11552.75079 11092.10737 0.0000871601
11546.91016 11565.21928 11097.99092 0.00008660325
11717.73047 11578.00635 11104.04943 0.00008534076
11529.98047 11591.13664 11110.30368 0.00008673042
11608.13965 11604.6347 11116.77366 0.00008614645
11793.57031 11618.52399 11123.47849 0.00008479196
11613.37012 11632.82739 11130.43643 0.00008610765
11877.5498 11647.56724 11137.66481 0.00008419245
11675.09961 11662.76462 11145.18005 0.00008565237
11792.25 11678.44044 11152.99759 0.00008480146
11793.58008 11694.6144 11161.13193 0.00008479189
12051.99023 11711.30577 11169.59656 0.00008297385
11725.79004 11728.53263 11178.404 0.0000852821
11821.58984 11746.31259 11187.56577 0.00008459099
11939.66016 11764.66249 11197.09239 0.00008375448
11694.46973 11783.59823 11206.99338 0.0000855105
11839.92969 11803.13517 11217.27728 0.00008445996
11995.95996 11823.28806 11227.95164 0.0000833614
11896.74023 11844.07017 11239.02304 0.00008405664
11956.04004 11865.49543 11250.49708 0.00008363973
11985.66992 11887.57569 11262.37841 0.00008343297
11994.59961 11910.32354 11274.67075 0.00008337085
11740.25977 11933.74977 11287.3769 0.00008517699
11881.79004 11957.86569 11300.49874 0.0000841624
12157.53027 11982.68115 11314.03729 0.00008225355
12043.5 12008.20621 11327.99268 0.00008303234
11890.62012 12034.4501 11342.36422 0.0000840999
12107.2998 12061.42207 11357.15038 0.0000825948
12092.48047 12089.13041 11372.34885 0.00008269602
12001.08984 12117.58394 11387.95653 0.00008332577
12180.33008 12146.79039 11403.9696 0.00008209958
12225.42969 12176.75773 11420.3835 0.00008179672
12387.12012 12207.49394 11437.19297 0.00008072901
12222.28027 12239.00645 11454.39211 0.00008181779
12567.41016 12271.30324 11471.97435 0.00007957089
12316.54004 12304.3919 11489.93252 0.00008119163
12365.33008 12338.28032 11508.25886 0.00008087127
12364.75977 12372.97646 11526.94505 0.000080875
12176.98047 12408.48865 11545.98224 0.00008212217
12454.25 12444.82523 11565.36109 0.00008029388
12558.37012 12481.99556 11585.07176 0.00007962817
12449.17969 12520.0087 11605.10397 0.00008032658
12346.88965 12558.8752 11625.44704 0.00008099206
12574.48047 12598.60517 11646.08986 0.00007952615
12512.30957 12639.21077 11667.02099 0.0000799213
12776.00977 12680.70294 11688.22861 0.0000782717
12554.46973 12723.09639 11709.70062 0.00007965291
12582.92969 12766.40401 11731.42461 0.00007947275
12759.59961 12810.64275 11753.38792 0.00007837237
12734.16992 12855.82783 11775.57765 0.00007852887
12860.70996 12901.97902 11797.98067 0.0000777562
12845.79004 12949.11525 11820.58368 0.00007784652
12906.00977 12997.25836 11843.37322 0.00007748328
12888.19043 13046.43203 11866.33565 0.00007759041
12861.49023 13096.66152 11889.45726 0.00007775149
13144.33008 13147.97558 11912.72421 0.00007607843
13161.48047 13200.40379 11936.12259 0.00007597929
13219.29004 13253.98029 11959.63843 0.00007564703
13230.48047 13308.74079 11983.25774 0.00007558304
13169.32031 13364.72511 12006.9665 0.00007593406
13322.0498 13421.98211 12030.75071 0.00007506352
13353.91992 13480.54722 12054.59637 0.00007488438
13625.44043 13540.47744 12078.48954 0.00007339212
13747.76953 13601.82873 12102.41633 0.00007273907
13587.20996 13664.66144 12126.36292 0.00007359863
13629.25 13729.04301 12150.31559 0.00007337161
13623.41992 13795.04299 12174.26071 0.00007340301
13655.53027 13862.74381 12198.1848 0.0000732304
13817.34961 13932.22421 12222.07449 0.00007237278
13737.49023 14003.57979 12245.91656 0.0000727935
14273.9502 14076.9088 12269.69796 0.00007005769
14212.2998 14152.32223 12293.40582 0.00007036159
14237.53027 14229.9339 12317.02745 0.0000702369
14294.69043 14309.87433 12340.55034 0.00006995604
14345.0498 14392.2773 12363.96221 0.00006971046
14527.87988 14477.2934 12387.251 0.00006883317
14602.7998 14565.07905 12410.40487 0.00006848002
14422.44043 14655.80719 12433.41221 0.00006933639
14816.33984 14749.66254 12456.26166 0.00006749305
14912.2002 14846.84099 12478.94212 0.00006705919
15082.80957 14947.55629 12501.44275 0.00006630064
14719.83008 15052.03305 12523.75297 0.00006793557
15287.34961 15160.57 12545.86247 0.00006541356
15085.05957 15273.32278 12567.76122 0.00006629076
15411.50977 15390.602 12589.4395 0.00006488657
15424.44043 15512.70845 12610.88784 0.00006483217
15755.28027 15639.95048 12632.0971 0.00006347078
15871.71973 15772.65278 12653.0584 0.00006300514
15998.7998 15911.18718 12673.7632 0.00006250469
16289.41992 16055.86051 12694.20324 0.00006138954
16139.36035 16207.07936 12714.37057 0.00006196032
16508.10938 16365.24617 12734.25755 0.00006057629
16699.19922 16530.76588 12753.85686 0.00005988311
16970.96094 16704.07536 12773.16148 0.00005892418
16920.08008 16885.62337 12792.16471 0.00005910138
17021.16992 17075.87361 12810.86015 0.00005875037
17412.14062 17275.30645 12829.24173 0.00005743119
17546.82031 17484.40601 12847.3037 0.00005699038
18000.78906 17703.6821 12865.0406 0.00005555312
18058.25 17933.63667 12882.44729 0.00005537635
18314.01953 18174.79321 12899.51896 0.00005460298
18699.58008 18427.66077 12916.25109 0.00005347714
18870.41016 18692.7603 12932.63947 0.00005299302
19209.96094 18970.59021 12948.68021 0.00005205633
19484.60938 19261.64887 12964.36971 0.00005132256
19749.21094 19566.39356 12979.70468 0.00005063493
20128.89062 19885.26576 12994.68214 0.00004967984
20349.28906 20218.64289 13009.29938 0.00004914177
20666.09961 20566.86413 13023.554 0.00004838842
21137.28906 20930.17881 13037.4439 0.00004730976
21591.18945 21308.71525 13050.96725 0.00004631519
22030.13086 21702.54028 13064.12251 0.00004539238
22162.5 22111.49785 13076.90842 0.00004512126
22515.56055 22535.32622 13089.32399 0.00004441373
23148.14062 22973.46758 13101.36851 0.00004320001
23886.5 23425.18586 13113.04152 0.00004186465
23825.58984 23889.36151 13124.34284 0.00004197168
24498.75977 24364.61301 13135.27255 0.00004081839
24757.81055 24849.07887 13145.83096 0.00004039129
25605.83984 25340.52148 13156.01865 0.00003905359
26101.58984 25836.16779 13165.83643 0.00003831184
26203.15039 26332.76211 13175.28535 0.00003816335
27072.13086 26826.47907 13184.36671 0.00003693836
27067.2207 27312.97401 13193.082 0.00003694506
27767.33008 27787.34971 13201.43297 0.00003601355
28155.93945 28244.2658 13209.42157 0.00003551648
28502.91992 28677.9614 13217.04995 0.00003508412
28848.24023 29082.44271 13224.3205 0.00003466416
29359.16016 29451.58438 13231.23577 0.00003406092
29532.2207 29779.37892 13237.79854 0.00003386132
30086.16992 30060.10663 13244.01175 0.00003323786
30428.09961 30288.625 13249.87854 0.00003286436
30240.24023 30460.52457 13255.40222 0.00003306852
30806.21094 30572.43024 13260.58628 0.00003246099
30338.9707 30622.11034 13265.43437 0.00003296091
30628.05078 30608.62385 13269.95031 0.00003264981
30362.11914 30532.35854 13274.13807 0.00003293578
30682.96094 30395.02116 13278.00175 0.00003259138
30393.78906 30199.52076 13281.54564 0.00003290146
30286.76953 29949.87463 13284.77411 0.00003301772
30153.86914 29650.91605 13287.69171 0.00003316324
29375.36914 29308.18893 13290.30309 0.00003404213
29000.7207 28927.58574 13292.61305 0.0000344819
28638.88086 28515.24078 13294.62646 0.00003491757
28275.53906 28077.21278 13296.34834 0.00003536626
27926.71094 27619.40236 13297.7838 0.00003580801
27137.7207 27147.32743 13298.93806 0.00003684908
26626.96094 26666.10561 13299.81641 0.00003755592
25965.50977 26180.3126 13300.42425 0.00003851263
25764.07031 25694.01641 13300.76706 0.00003881374
25256.94922 25210.70915 13300.8504 0.00003959306
24676.19922 24733.37913 13300.67989 0.00004052488
23628.5293 24264.48543 13300.26123 0.00004232172
23792.58984 23806.05626 13299.60019 0.00004202989
23189.23047 23359.67071 13298.70258 0.00004312347
22968.84961 22926.56951 13297.57427 0.00004353723
22211.94922 22507.64262 13296.22118 0.00004502081
21541.32031 22103.53248 13294.64928 0.00004642241
21402.66992 21714.62036 13292.86458 0.00004672314
21057.48047 21341.10419 13290.87311 0.00004748906
20482.57031 20983.03888 13288.68093 0.000048822
20180.58008 20640.29308 13286.29415 0.00004955259
20081.33984 20312.69322 13283.71889 0.00004979747
19657.10938 19999.91439 13280.96126 0.00005087218
19181.21094 19701.62777 13278.02743 0.00005213435
19092.2793 19417.39252 13274.92354 0.00005237719
18710.76953 19146.78011 13271.65576 0.00005344516
18725.15039 18889.30048 13268.23024 0.00005340411
18436.15039 18644.46836 13264.65314 0.00005424126
18356.33008 18411.75438 13260.93062 0.00005447712
18007.44922 18190.66432 13257.06881 0.00005553257
18024.81055 17980.67172 13253.07385 0.00005547909
17804.58984 17781.27196 13248.95185 0.00005616529
17378.33008 17591.95405 13244.70888 0.00005754293
17286.00977 17412.22797 13240.35103 0.00005785025
17298.09961 17241.60563 13235.88433 0.00005780982
16899.34961 17079.62124 13231.31478 0.00005917387
16654.60938 16925.81436 13226.64837 0.00006004344
17037.9707 16779.7494 13221.89102 0.00005869244
16585.36914 16640.99954 13217.04865 0.00006029411
16553.82031 16509.16682 13212.12711 0.00006040902
16399.91992 16383.84768 13207.13221 0.00006097591
16150.42969 16264.67844 13202.06973 0.00006191786
15972.91016 16151.30382 13196.94537 0.000062606
16137.73047 16043.38646 13191.7648 0.00006196658
16125.82031 15940.61379 13186.53363 0.00006201235
15767.87012 15842.67722 13181.25742 0.00006342011
15877.37988 15749.29217 13175.94166 0.00006298268
15639.98047 15660.18917 13170.59179 0.0000639387
15526.16016 15575.12312 13165.21317 0.00006440743
15247.59961 15493.84193 13159.81112 0.00006558409
15485.48047 15416.13258 13154.39087 0.00006457662
15457.37012 15341.78141 13148.9576 0.00006469406
15361.95996 15270.59535 13143.5164 0.00006509586
15497.33008 15202.38657 13138.07231 0.00006452724
14915.75 15136.98848 13132.63028 0.00006704323
15226.21973 15074.23886 13127.19519 0.00006567618
15419.70996 15013.99035 13121.77186 0.00006485206
15081.54004 14956.10275 13116.36501 0.00006630623
14742.58008 14900.44838 13110.97928 0.00006783073
14925.96973 14846.90581 13105.61925 0.00006699732
14542.20996 14795.36399 13100.28941 0.00006876534
15031.69043 14745.71832 13094.99417 0.00006652612
14748.41992 14697.87251 13089.73784 0.00006780387
14529.00977 14651.73547 13084.52468 0.00006882782
14558.42969 14607.2244 13079.35884 0.00006868873
14673.7998 14564.26023 13074.24438 0.00006814867
14802.41992 14522.77144 13069.1853 0.00006755652
14463.44043 14482.68874 13064.18549 0.00006913984
14456.08984 14443.94935 13059.24877 0.000069175
14389.87988 14406.49627 13054.37885 0.00006949328
14464.9502 14370.27227 13049.57938 0.00006913263
14270.12988 14335.22577 13044.8539 0.00007007645
14483.41016 14301.30875 13040.20587 0.00006904451
14373.83984 14268.47807 13035.63867 0.00006957083
14062.30957 14236.68848 13031.15556 0.00007111207
14270.37988 14205.9024 13026.75975 0.00007007522
14498.5498 14176.08155 13022.45433 0.00006897242
14138.33008 14147.19193 13018.24231 0.00007072971
14157.58984 14119.19858 13014.12662 0.00007063349
14164.71973 14092.07223 13010.1101 0.00007059794
14143.69043 14065.78242 13006.19547 0.0000707029
14053.49023 14040.30224 13002.38541 0.0000711567
13872.34961 14015.60474 12998.68246 0.00007208584
14082.86035 13991.66571 12995.08911 0.0000710083
14019.05957 13968.46105 12991.60775 0.00007133146
14097.30957 13945.96922 12988.24067 0.00007093552
13803.38965 13924.16848 12984.99008 0.00007244597
14016.66992 13903.03914 12981.8581 0.00007134362
13851.62012 13882.56169 12978.84678 0.00007219372
13829.25977 13862.71842 12975.95805 0.00007231045
13966.55957 13843.49162 12973.19378 0.00007159959
13870.75 13824.86524 12970.55575 0.00007209415
13818.13965 13806.82304 12968.04565 0.00007236864
13634.50977 13789.35004 12965.66507 0.0000733433
13723.51953 13772.43275 12963.41556 0.0000728676
13648.28027 13756.05651 12961.29853 0.0000732693
13785.26953 13740.20795 12959.31535 0.0000725412
13881.36035 13724.87539 12957.46729 0.00007203905
14084.62988 13710.04673 12955.75555 0.00007099938
13787.41016 13695.7097 12954.18123 0.00007252994
13735.42969 13681.85321 12952.74537 0.00007280442
13738.86035 13668.46711 12951.44891 0.00007278624
13635.2002 13655.54117 12950.29274 0.00007333959
13741.23047 13643.06479 12949.27765 0.00007277369
13753.50977 13631.02918 12948.40436 0.00007270871
13422.50977 13619.4248 12947.67351 0.00007450172
13586.34961 13608.24325 12947.08568 0.00007360329
13675.16992 13597.47515 12946.64137 0.00007312523
13749.12012 13587.11505 12946.34098 0.00007273193
13806.61035 13577.15316 12946.18489 0.00007242907
13732.26953 13567.57889 12946.17336 0.00007282117
13716.83008 13558.38705 12946.30662 0.00007290314
13729.91992 13549.57067 12946.58479 0.00007283364
13201.7002 13541.12244 12947.00796 0.00007574782
13483.57031 13533.03559 12947.57614 0.00007416433
13709.24023 13525.30404 12948.28926 0.0000729435
13629.34961 13517.92079 12949.1472 0.00007337107
13572.2998 13510.88273 12950.14977 0.00007367948
13534.12988 13504.17853 12951.29673 0.00007388728
13516.13965 13497.80396 12952.58777 0.00007398562
13695.0498 13491.75362 12954.02251 0.00007301908
13346.58984 13486.02177 12955.60053 0.00007492551
13445.08008 13480.60335 12957.32133 0.00007437665
13525.17969 13475.49298 12959.18437 0.00007393617
13415.33984 13470.68505 12961.18905 0.00007454153
13556.20996 13466.17444 12963.3347 0.00007376693
13305.58984 13461.95635 12965.62063 0.00007515638
13627.24023 13458.02469 12968.04607 0.00007338243
13730.08984 13454.37655 12970.6102 0.00007283274
13320.66992 13451.00651 12973.31217 0.0000750713
13389.9502 13447.90956 12976.15104 0.00007468288
13508.07031 13445.08149 12979.12588 0.00007402982
13476.55957 13442.5172 12982.23566 0.00007420291
13292.69043 13440.21282 12985.47933 0.00007522932
13620.83008 13438.1627 12988.85579 0.00007341696
13511.36035 13436.36483 12992.36391 0.00007401179
13618.4502 13434.81361 12996.00249 0.00007342979
13632.21973 13433.50525 12999.77031 0.00007335563
13687.61035 13432.43542 13003.66611 0.00007305877
13468.66016 13431.60014 13007.68859 0.00007424643
13427.08984 13430.99561 13011.83639 0.0000744763
13432.55957 13430.61765 13016.10814 0.00007444598
13323.0498 13430.46247 13020.50243 0.00007505789
13276.74023 13430.52614 13025.0178 0.00007531969
13284.79004 13430.80517 13029.65279 0.00007527405
13559.50977 13431.2956 13034.40587 0.00007374898
13507.74023 13431.99361 13039.27549 0.00007403163
13535.23047 13432.89577 13044.26009 0.00007388127
13257.19043 13433.99856 13049.35807 0.00007543076
13566.90039 13435.29817 13054.56778 0.0000737088
13448.12988 13436.79103 13059.88758 0.00007435978
13650.66992 13438.47381 13065.31578 0.00007325648
13374.80957 13440.34314 13070.85067 0.00007476742
13423.34961 13442.39527 13076.49053 0.00007449705
13360.44043 13444.62718 13082.23359 0.00007484783
13337.4502 13447.03524 13088.0781 0.00007497685
13333.7998 13449.61638 13094.02224 0.00007499738
13262.91016 13452.36696 13100.06422 0.00007539823
13509.37988 13455.28405 13106.2022 0.00007402264
13415.73047 13458.36428 13112.43433 0.00007453936
13458.92969 13461.60455 13118.75874 0.00007430011
13428.62012 13465.00155 13125.17357 0.00007446782
13394.74023 13468.55232 13131.67691 0.00007465617
13583.57031 13472.25365 13138.26686 0.00007361835
13399.78027 13476.1025 13144.9415 0.00007462809
13281.05957 13480.09597 13151.69891 0.0000752952
13388.69043 13484.2309 13158.53714 0.0000746899
13471.53027 13488.50436 13165.45425 0.00007423062
13345.00977 13492.91338 13172.44827 0.00007493438
13606.69043 13497.45523 13179.51725 0.00007349326
13466.92969 13502.12685 13186.65922 0.00007425598
13597.20996 13506.92539 13193.8722 0.0000735445
13527.7998 13511.84815 13201.15421 0.00007392185
13582.45996 13516.89236 13208.50327 0.00007362437
13356.05957 13522.05526 13215.9174 0.00007487238
13634.26953 13527.334 13223.39459 0.0000733446
13575.4502 13532.72607 13230.93288 0.00007366238
13328.44043 13538.22884 13238.53025 0.00007502753
13579.42969 13543.83953 13246.18474 0.0000736408
13445.04004 13549.55583 13253.89435 0.00007437687
13538.4502 13555.37499 13261.6571 0.0000738637
13324.91992 13561.30142 13269.471 0.00007504736
13315.98047 13567.319 13277.33409 0.00007509774
13422.58984 13573.43225 13285.24437 0.00007450127
13510.40039 13579.63868 13293.1999 0.00007401705
13660.86035 13585.93601 13301.19871 0.00007320183
13571.32031 13592.32191 13309.23884 0.0000736848
13463.83984 13598.79417 13317.31835 0.00007427302
13541.19043 13605.35056 13325.43529 0.00007384875
13382.75 13611.98889 13333.58775 0.00007472306
13314.84961 13618.70717 13341.7738 0.00007510412
13576.53027 13625.50323 13349.99154 0.00007365652
13502.59961 13632.37507 13358.23906 0.00007405981
13545.19043 13639.32414 13366.51449 0.00007382694
13639.33008 13646.34183 13374.81594 0.00007331738
13737.19043 13653.42957 13383.14157 0.00007279509
13574.70996 13660.58556 13391.48951 0.0000736664
13544.24023 13667.80816 13399.85795 0.00007383212
13646.71973 13675.09567 13408.24506 0.00007327768
13721.41016 13682.44648 13416.64905 0.00007287881
13600.33984 13689.85895 13425.06812 0.00007352757
13487.33984 13697.33174 13433.50052 0.00007414361
13428.01953 13704.86207 13441.94448 0.00007447115
13519.49023 13712.45128 13450.39828 0.00007396729
13614 13720.0967 13458.8602 0.0000734538
13820.54004 13727.79734 13467.32855 0.00007235607
13573.71973 13735.55196 13475.80164 0.00007367177
13790.91016 13743.35968 13484.27782 0.00007251153
13626.90039 13751.21952 13492.75545 0.00007338426
13794.7002 13759.13074 13501.23292 0.00007249161
13815.58008 13767.09254 13509.70863 0.00007238205
13626.67969 13775.10377 13518.18101 0.00007338545
13564.09961 13783.1652 13526.64851 0.00007372402
13599.80957 13791.27587 13535.10958 0.00007353044
13565.53027 13799.43862 13543.56274 0.00007371625
13897.12012 13807.64715 13552.0065 0.00007195735
13854.26953 13815.90453 13560.43939 0.00007217992
13717.54004 13824.2138 13568.85998 0.00007289937
13691.30957 13832.56973 13577.26687 0.00007303903
13765.01953 13840.9756 13585.65865 0.00007264792
13792.17969 13849.43207 13594.03397 0.00007250486
13714.83008 13857.93996 13602.3915 0.00007291377
13858.91016 13866.50044 13610.72992 0.00007215575
13969.01953 13875.11474 13619.04795 0.00007158699
13615.70996 13883.78591 13627.34432 0.00007344457
13801.2998 13892.51248 13635.61781 0.00007245694
13804.58008 13901.29951 13643.86721 0.00007243973
13832.41016 13910.14642 13652.09133 0.00007229398
13895.63965 13919.05711 13660.28903 0.00007196502
14055.36035 13928.03435 13668.45918 0.00007114723
13859.29004 13937.08144 13676.60069 0.00007215377
13826.16016 13946.20169 13684.71248 0.00007232666
13835.26953 13955.39912 13692.79351 0.00007227904
13927.7998 13964.67777 13700.84276 0.00007179885
13798.51953 13974.04248 13708.85926 0.00007247154
13639.44043 13983.49808 13716.84205 0.00007331679
13815.82031 13993.05029 13724.79018 0.00007238079
13875.33008 14002.70483 13732.70278 0.00007207036
13978.69043 14012.46837 13740.57895 0.00007153746
14051.12012 14022.34773 13748.41787 0.0000711687
14124 14032.35042 13756.21871 0.00007080147
13905.63965 14042.48445 13763.98069 0.00007191327
13998.07031 14052.75826 13771.70306 0.00007143842
14214.36035 14063.18109 13779.38509 0.00007035139
13974.87988 14073.76239 13787.02608 0.00007155697
14134.58008 14084.5123 13794.62536 0.00007074848
14062.24023 14095.44119 13802.18229 0.00007111242
13935.45996 14106.57508 13809.69626 0.00007175938
14081.73047 14117.89514 13817.1667 0.000071014
14154.79004 14129.42764 13824.59304 0.00007064746
14359.67969 14141.18375 13831.97477 0.00006963944
14377.66016 14153.17464 13839.3114 0.00006955235
14409.67969 14165.41061 13846.60245 0.0000693978
14236.73047 14177.90132 13853.8475 0.00007024085
14335.21973 14190.6547 13861.04613 0.00006975826
14204.07031 14203.68479 13868.19797 0.00007040235
14370.71973 14216.97978 13875.30268 0.00006958594
14433.57031 14230.54796 13882.35992 0.00006928293
14631.58008 14244.38468 13889.36942 0.00006834532
14314.65039 14258.48109 13896.3309 0.0000698585
14600.32031 14272.82065 13903.24414 0.00006849165
14492.75977 14287.38039 13910.10892 0.00006899997
14415.08008 14302.12678 13916.92507 0.0000693718
14453.2002 14317.01745 13923.69245 0.00006918883
14663.75 14331.99723 13930.41091 0.00006819538
14666.0498 14346.99897 13937.08038 0.00006818469
14618.88965 14361.94269 13943.70079 0.00006840465
14693.83008 14376.73489 13950.27209 0.00006805578
14815.24023 14391.27031 13956.79428 0.00006749806
14646.42969 14405.43262 13963.26737 0.00006827603
14748.74023 14419.09774 13969.69139 0.0000678024
14847.45996 14432.13719 13976.06642 0.00006735159
14467.95996 14444.42333 13982.39255 0.00006911824
14659.67969 14455.83425 13988.66991 0.00006821431
14585.0498 14466.26028 13994.89863 0.00006856336
14887.91992 14475.60969 14001.07888 0.00006716855
14910.4502 14483.81411 14007.21087 0.00006706706
14876.71973 14490.83283 14013.29482 0.00006721912
14876.83984 14496.65515 14019.33097 0.00006721858
14763.53027 14501.30153 14025.31959 0.00006773448
14739.09961 14504.82181 14031.26098 0.00006784675
14846.91992 14507.29287 14037.15546 0.00006735404
15049.33984 14508.81284 14043.00336 0.0000664481
14952.16016 14509.4971 14048.80506 0.00006687997
14805.23047 14509.47045 14054.56094 0.0000675437
14706.12012 14508.86335 14060.27141 0.0000679989
14896.11035 14507.8042 14065.93691 0.00006713162
14532.82031 14506.41735 14071.5579 0.00006880977
14860.48047 14504.81709 14077.13484 0.00006729258
14634.13965 14503.10674 14082.66824 0.00006833336
14677.71973 14501.37965 14088.15861 0.00006813047
14636.76953 14499.71264 14093.6065 0.00006832109
14743.29004 14498.17139 14099.01247 0.00006782747
14667.63965 14496.80873 14104.37709 0.0000681773
14695.33008 14495.66728 14109.70097 0.00006804883
14612.42969 14494.77761 14114.98472 0.00006843489
14458.28027 14494.16315 14120.22898 0.00006916452
14572.74023 14493.84044 14125.43441 0.00006862127
14398.63965 14493.81877 14130.60167 0.00006945101
14440.03027 14494.10244 14135.73146 0.00006925193
14325.94043 14494.69213 14140.82448 0.00006980345
14321.29004 14495.58539 14145.88147 0.00006982611
14567.71973 14496.77678 14150.90315 0.00006864492
14370.33008 14498.25966 14155.89029 0.00006958782
14392.08008 14500.02617 14160.84366 0.00006948266
14442.84961 14502.06733 14165.76404 0.00006923841
14606.9502 14504.37436 14170.65224 0.00006846056
14360.2002 14506.93739 14175.50907 0.00006963691
14276.73047 14509.74759 14180.33536 0.00007004405
14439.46973 14512.79543 14185.13195 0.00006925462
14347.12012 14516.07259 14189.8997 0.0000697004
14354.70996 14519.57043 14194.63947 0.00006966355
14478.83008 14523.28149 14199.35215 0.00006906635
14226.7002 14527.19824 14204.03862 0.00007029037
14183.80957 14531.31427 14208.69979 0.00007050292
14426.48047 14535.62354 14213.33657 0.00006931698
14446.28027 14540.12044 14217.94988 0.00006922197
14447.5498 14544.80031 14222.54066 0.00006921589
14527.09961 14549.65889 14227.10984 0.00006883687
14498.58984 14554.69256 14231.65837 0.00006897222
14542.66992 14559.89814 14236.18722 0.00006876316
14597.88965 14565.3252 14240.69735 0.00006850305
14448.15039 14570.86788 14245.18973 0.00006921301
14371.79004 14576.58093 14249.66535 0.00006958075
14375.04004 14582.45492 14254.12519 0.00006956502
14286.12988 14588.49372 14258.57024 0.00006999796
14364.09961 14594.69754 14263.0015 0.00006961801
14496.99023 14601.06686 14267.41998 0.00006897984
14328.45996 14607.60269 14271.82668 0.00006979117
14388.07031 14614.30664 14276.22261 0.00006950202
14701.79004 14621.20666 14280.6088 0.00006801893
14294.40039 14628.25538 14284.98625 0.00006995746
14686.70996 14635.47744 14289.356 0.00006808877
14266.95996 14642.87832 14293.71905 0.00007009202
14428.62988 14650.46181 14298.07645 0.00006930665
14418.57031 14658.23227 14302.42921 0.000069355
14272.67969 14666.19521 14306.77836 0.00007006393
14387.2002 14674.35426 14311.12494 0.00006950623
14504.67969 14682.71594 14315.46996 0.00006894327
14773.90039 14691.28652 14319.81445 0.00006768693
14542.2998 14700.07271 14324.15944 0.00006876491
14406.7998 14709.08165 14328.50596 0.00006941167
14445.25977 14718.32128 14332.85503 0.00006922686
14376.63965 14727.80008 14337.20766 0.00006955728
14746.44043 14737.52697 14341.56488 0.00006781298
14651.40039 14747.51182 14345.9277 0.00006825286
14595.45996 14757.76419 14350.29712 0.00006851446
14763.16992 14768.29553 14354.67416 0.00006773613
14678.66016 14779.11749 14359.05982 0.00006812611
14522.98047 14790.24245 14363.45509 0.00006885639
14907.70996 14801.68365 14367.86096 0.00006707938
14917.55957 14813.45519 14372.27842 0.00006703509
14778.12988 14825.57214 14376.70845 0.00006766756
14561.0498 14838.05038 14381.15202 0.00006867637
14632.82031 14850.90675 14385.61009 0.00006833953
14812.59961 14864.15965 14390.08362 0.00006751009
14718.5498 14877.82807 14394.57356 0.00006794148
14764.61035 14891.93239 14399.08086 0.00006772952
14656.48047 14906.49401 14403.60643 0.0000682292
14830.55957 14921.53614 14408.15121 0.00006742834
14983.30957 14937.08342 14412.71611 0.00006674093
15201.69043 14953.16158 14417.30204 0.00006578216
14912.7002 14969.79787 14421.90987 0.00006705694
14914.08984 14987.02168 14426.5405 0.00006705069
14780.62988 15004.86423 14431.1948 0.00006765612
15099.13965 15023.35806 14435.87363 0.00006622894
15014.41016 15042.53759 14440.57783 0.00006660268
14920.62012 15062.43949 14445.30823 0.00006702134
15206.2998 15083.10282 14450.06567 0.00006576222
15141.53027 15104.56784 14454.85095 0.00006604352
15324.88965 15126.87702 14459.66487 0.00006525332
14976.40039 15150.07573 14464.5082 0.00006677172
15188.61035 15174.20948 14469.38173 0.00006583881
15221.74023 15199.3277 14474.2862 0.00006569551
15158.34961 15225.48012 14479.22235 0.00006597024
15085.25 15252.71755 14484.1909 0.00006628992
15123.26953 15281.09274 14489.19258 0.00006612327
15203.21973 15310.659 14494.22807 0.00006577554
15386.62012 15341.46861 14499.29804 0.00006499153
15650.37012 15373.57265 14504.40317 0.00006389625
15397.79004 15407.02078 14509.5441 0.00006494438
15490.24023 15441.8606 14514.72145 0.00006455678
15504.75 15478.132 14519.93584 0.00006449636
15429.87012 15515.86971 14525.18786 0.00006480936
15604.90039 15555.09955 14530.47809 0.00006408243
15776.5 15595.8372 14535.8071 0.00006338542
15625.66016 15638.0829 14541.17541 0.0000639973
15549.09961 15681.81965 14546.58356 0.00006431241
15827.09961 15727.01153 14552.03206 0.00006318277
15845.46973 15773.60046 14557.52137 0.00006310952
15982.07031 15821.50063 14563.05198 0.00006257012
16142.01953 15870.59795 14568.62434 0.00006195012
16265.66992 15920.74921 14574.23886 0.00006147918
16192.19043 15971.78194 14579.89596 0.00006175817
16253.9502 16023.49324 14585.59604 0.00006152351
16347.25977 16075.65371 14591.33945 0.00006117233
16209.42969 16128.01781 14597.12656 0.00006169249
16259.16016 16180.32369 14602.95768 0.00006150379
16428.85938 16232.31296 14608.83313 0.0000608685
16249.19043 16283.73719 14614.7532 0.00006154153
16456.67969 16334.37579 14620.71816 0.0000607656
16671.51953 16384.05464 14626.72825 0.00005998253
16521.76953 16432.65434 14632.78369 0.0000605262
16566.71094 16480.12662 14638.88471 0.00006036201
16877.33008 16526.50539 14645.03147 0.00005925108
16901.49023 16571.91767 14651.22414 0.00005916638
16627.14062 16616.58721 14657.46287 0.00006014263
16526.07031 16660.77886 14663.74777 0.00006051045
16870.23047 16704.88177 14670.07895 0.00005927601
16765.13086 16749.34125 14676.45647 0.00005964761
16770.15039 16794.64359 14682.8804 0.00005962976
17193.2793 16841.31376 14689.35076 0.00005816226
16762.0293 16889.89734 14695.86758 0.00005965865
17023.34961 16940.95385 14702.43084 0.00005874285
16976.73047 16995.02056 14709.0405 0.00005890416
16910.18945 17052.62603 14715.69652 0.00005913594
17007.39062 17114.24914 14722.39882 0.00005879797
17236.65039 17180.36802 14729.1473 0.00005801591
17131.86914 17251.37632 14735.94184 0.00005837075
17415.38086 17327.6348 14742.7823 0.00005742051
17034.34961 17409.44149 14749.66852 0.00005870491
17246.89062 17497.03664 14756.60031 0.00005798147
17513.16992 17590.56709 14763.57747 0.00005709989
17453.85938 17690.09098 14770.59976 0.00005729392
17629.73047 17795.56037 14777.66693 0.00005672236
17382.57031 17906.80636 14784.77872 0.00005752889
17367.40039 18023.53423 14791.93483 0.00005757914
17878.94922 18145.2555 14799.13494 0.0000559317
17787.92969 18271.30501 14806.37871 0.0000562179
17908 18400.8124 14813.66579 0.00005584096
17966.23047 18532.69294 14820.99579 0.00005565998
18348.13086 18665.59548 14828.36832 0.00005450146
18247.2793 18797.92714 14835.78295 0.00005480269
18082.7207 18927.86203 14843.23924 0.00005530141
18431.24023 19053.36898 14850.73672 0.00005425571
18684.18945 19172.21995 14858.27491 0.00005352119
18665.71094 19282.08083 14865.85329 0.00005357417
18877.9707 19380.59628 14873.47135 0.0000529718
19065.18945 19465.48685 14881.12854 0.00005245162
18971.94922 19534.64046 14888.82428 0.0000527094
19259.7207 19586.24688 14896.55799 0.00005192183
19339.53906 19618.9044 14904.32906 0.00005170754
19711.38086 19631.69774 14912.13686 0.00005073211
19935.4707 19624.25678 14919.98074 0.00005016185
19560.38086 19596.78461 14927.86005 0.00005112375
19667.85938 19550.04554 14935.77408 0.00005084437
19596.5293 19485.29311 14943.72214 0.00005102944
19620.94922 19404.21374 14951.7035 0.00005096593
19612.53906 19308.80802 14959.71742 0.00005098779
19782.75977 19201.28592 14967.76314 0.00005054906
19592.93945 19083.94919 14975.83986 0.00005103879
19550.0293 18959.07625 14983.94681 0.00005115082
19379.71094 18828.87085 14992.08316 0.00005160036
19149.74023 18695.37309 15000.24807 0.00005222003
19185.46094 18560.41274 15008.44071 0.0000521228
18984.53906 18425.57337 15016.66019 0.00005267444
18841.51953 18292.21895 15024.90564 0.00005307428
18774.38086 18161.47115 15033.17614 0.00005326407
18507.55078 18034.21993 15041.4708 0.000054032
18392.66992 17911.14108 15049.78866 0.00005436949
18121.40039 17792.74666 15058.12879 0.00005518337
18344.73047 17679.38837 15066.49021 0.00005451157
18073.13086 17571.28079 15074.87195 0.00005533076
17758.55078 17468.51936 15083.27301 0.0000563109
18004.67969 17371.12796 15091.69237 0.00005554112
17292.78906 17279.05663 15100.12903 0.00005782757
17718.57031 17192.19727 15108.58193 0.00005643796
17508.59961 17110.39351 15117.05002 0.00005711479
17290.58984 17033.47543 15125.53225 0.00005783493
17105.75 16961.24814 15134.02752 0.00005845987
17323.0293 16893.50133 15142.53475 0.00005772662
17047.21094 16830.01296 15151.05284 0.00005866062
16978.76953 16770.56943 15159.58066 0.00005889708
16920.66016 16714.95497 15168.1171 0.00005909935
16575.00977 16662.95936 15176.661 0.00006033179
16632.34961 16614.38086 15185.21122 0.0000601238
16847.82031 16569.00742 15193.7666 0.00005935486
16539.0293 16526.65761 15202.32596 0.00006046304
16748.99023 16487.15238 15210.88812 0.00005970509
16509.71094 16450.31996 15219.45189 0.00006057041
16719.06055 16415.9951 15228.01607 0.00005981197
16592.67969 16384.02799 15236.57944 0.00006026754
16694.41992 16354.27669 15245.14079 0.00005990025
16310.70996 16326.60603 15253.69889 0.00006130941
16628.18945 16300.88724 15262.2525 0.00006013884
16457.69922 16277.00442 15270.80037 0.00006076183
16299.00977 16254.85062 15279.34126 0.00006135342
16418.00977 16234.31731 15287.87391 0.00006090872
16097.82031 16215.30901 15296.39705 0.00006212021
15931.25977 16197.73728 15304.90942 0.00006276968
16249.25 16181.51921 15313.40972 0.0000615413
16294.20996 16166.57627 15321.89669 0.00006137149
16076.2002 16152.83345 15330.36903 0.00006220375
16246.45996 16140.22465 15338.82546 0.00006155187
16141.16016 16128.68691 15347.26467 0.00006195342
16219.86035 16118.16094 15355.68536 0.00006165281
16040.23047 16108.5899 15364.08623 0.00006234324
16019.5 16099.92411 15372.46597 0.00006242392
16389.33984 16092.11546 15380.82327 0.00006101527
15991.01953 16085.11993 15389.15683 0.0000625351
16069.58984 16078.89577 15397.46531 0.00006222934
16048.05957 16073.40313 15405.74741 0.00006231283
16064.58008 16068.60694 15414.00181 0.00006224875
15861.25977 16064.47397 15422.22718 0.00006304669
16175.46973 16060.97295 15430.42222 0.00006182201
15928.33008 16058.07373 15438.58559 0.00006278122
16038.75 16055.75032 15446.71598 0.000062349
15956.87988 16053.97804 15454.81207 0.00006266889
15952.09961 16052.7336 15462.87254 0.00006268767
16159.36035 16051.99451 15470.89607 0.00006188364
16151.58008 16051.74199 15478.88135 0.00006191345
16134.15039 16051.95793 15486.82706 0.00006198033
16013.08984 16052.6255 15494.7319 0.00006244891
15836.91016 16053.72853 15502.59455 0.00006314363
16017.37012 16055.25389 15510.41371 0.00006243222
16103.95996 16057.18906 15518.18808 0.00006209653
16168.12012 16059.52258 15525.91636 0.00006185011
16085.86035 16062.24347 15533.59726 0.0000621664
15919.51953 16065.3436 15541.22948 0.00006281597
15771.09961 16068.81515 15548.81175 0.00006340712
15919.00977 16072.65139 15556.34278 0.00006281798
16028.48047 16076.84598 15563.8213 0.00006238895
16064.2002 16081.39534 15571.24605 0.00006225022
16070.90039 16086.29586 15578.61577 0.00006222427
16090.55957 16091.54531 15585.92919 0.00006214824
16116.4502 16097.14242 15593.18508 0.0000620484
16024.04004 16103.08698 15600.3822 0.00006240623
15888.65039 16109.38015 15607.51931 0.00006293801
16155.78027 16116.02405 15614.59519 0.00006189735
15914.25 16123.02216 15621.60862 0.00006283677
16177.2002 16130.378 15628.55841 0.00006181539
16058.24023 16138.09807 15635.44334 0.00006227332
15937.34961 16146.18904 15642.26225 0.00006274569
16023.49023 16154.65878 15649.01394 0.00006240838
16038.76953 16163.51602 15655.69725 0.00006234892
15914.19043 16172.77233 15662.31102 0.000062837
15906.5498 16182.43946 15668.85411 0.00006286718
15950.4502 16192.53043 15675.32538 0.00006269416
15901.2002 16203.05953 15681.72371 0.00006288833
16104.04004 16214.044 15688.04799 0.00006209622
16089.33008 16225.50118 15694.2971 0.00006215299
16241.46973 16237.44988 15700.46997 0.00006157078
15946.24023 16249.91038 15706.56553 0.00006271071
16172.61035 16262.90615 15712.5827 0.00006183294
16146.74023 16276.46028 15718.52043 0.00006193201
16190.49023 16290.59767 15724.3777 0.00006176465
16210.08984 16305.34442 15730.15347 0.00006168997
16502.07031 16320.72992 15735.84675 0.00006059846
16295.73047 16336.78237 15741.45652 0.00006136577
16061.48047 16353.53154 15746.98182 0.00006226076
16286.37988 16371.00798 15752.42168 0.000061401
16381.53027 16389.24402 15757.77515 0.00006104436
16289.61035 16408.27004 15763.04128 0.00006138882
16292.99023 16428.11613 15768.21917 0.00006137609
16224.2998 16448.81221 15773.3079 0.00006163594
16216.59961 16470.38369 15778.30659 0.00006166521
16247.04004 16492.85686 15783.21437 0.00006154967
16486.00977 16516.25036 15788.03037 0.00006065749
16467.68945 16540.57724 15792.75376 0.00006072497
16450.89062 16565.84317 15797.38372 0.00006078698
16243.54004 16592.0475 15801.91944 0.00006156294
16503.66016 16619.17392 15806.36013 0.00006059262
16690 16647.19224 15810.70502 0.00005991612
16783.92969 16676.05588 15814.95335 0.0000595808
16447.08984 16705.70133 15819.10439 0.00006080103
16382.98047 16736.03735 15823.15742 0.00006103895
16564.99023 16766.94747 15827.11174 0.00006036828
16784.43945 16798.28678 15830.96666 0.00005957899
16500.05078 16829.88129 15834.72153 0.00006060587
16896.30078 16861.51907 15838.3757 0.00005918455
16851.66016 16892.95437 15841.92853 0.00005934133
16985.67969 16923.90824 15845.37943 0.00005887312
16844.42969 16954.07203 15848.7278 0.00005936681
16838.7207 16983.10471 15851.97307 0.00005938693
16666.9707 17010.64779 15855.1147 0.00005999891
16781.2207 17036.31928 15858.15214 0.00005959042
16955.35938 17059.74677 15861.0849 0.0000589784
17159.58984 17080.56096 15863.91246 0.00005827645
16869.30078 17098.41635 15866.63438 0.00005927928
17332.59961 17113.00781 15869.25018 0.00005769475
17110.48047 17124.07848 15871.75944 0.00005844371
17045.78906 17131.43753 15874.16174 0.00005866552
17377.84961 17134.96568 15876.45669 0.00005754452
17353.68945 17134.62396 15878.64391 0.00005762463
17282.11914 17130.45628 15880.72306 0.00005786327
17382.26953 17122.57839 15882.6938 0.00005752989
17150.5 17111.18592 15884.55581 0.00005830734
17252.05078 17096.53602 15886.30881 0.00005796412
17316.25977 17078.93635 15887.95251 0.00005774919
17115.18945 17058.72901 15889.48668 0.00005842763
17315.92969 17036.28299 15890.91108 0.00005775029
17221.90039 17011.97555 15892.22549 0.0000580656
17094.73047 16986.1805 15893.42973 0.00005849756
17421.36914 16959.25474 15894.52362 0.00005740077
17091.46094 16931.53793 15895.50702 0.00005850875
17095.2207 16903.3408 15896.37979 0.00005849588
17112.71094 16874.94083 15897.14183 0.00005843609
17011.26953 16846.57889 15897.79305 0.00005878456
16898.16992 16818.46611 15898.33338 0.00005917801
16927.59961 16790.77914 15898.76278 0.00005907512
16753.0293 16763.66231 15899.08121 0.0000596907
16852.99023 16737.22814 15899.28867 0.00005933665
16733.78906 16711.56761 15899.38517 0.00005975933
16667.01953 16686.74822 15899.37074 0.00005999873
16578.86914 16662.81452 15899.24545 0.00006031774
16722.44922 16639.79822 15899.00936 0.00005979985
16777.81055 16617.71152 15898.66257 0.00005960253
16661.17969 16596.56041 15898.20519 0.00006001976
16724.94922 16576.33966 15897.63735 0.00005979091
16487.01953 16557.03609 15896.95922 0.00006065378
16658.84961 16538.62926 15896.17096 0.00006002815
16550.42969 16521.09787 15895.27276 0.00006042139
16485.91016 16504.41671 15894.26485 0.00006065786
16476 16488.55771 15893.14745 0.00006069434
16504.67969 16473.49049 15891.92081 0.00006058888
16452.40039 16459.18735 15890.58521 0.0000607814
16106.91992 16445.61962 15889.14093 0.00006208512
16595.5 16432.76003 15887.58829 0.0000602573
16483.7793 16420.57702 15885.92762 0.0000606657
16789.86914 16409.0469 15884.15925 0.00005955973
16359.76953 16398.14548 15882.28357 0.00006112556
16213.84961 16387.84932 15880.30094 0.00006167567
16436.49023 16378.13636 15878.21179 0.00006084024
16368.33984 16368.98761 15876.01651 0.00006109355
16228.25977 16360.38644 15873.71557 0.0000616209
16516.80078 16352.31694 15871.30941 0.00006054441
16423.7793 16344.76481 15868.7985 0.00006088733
16461.03906 16337.71968 15866.18335 0.00006074951
16106.5 16331.17143 15863.46445 0.00006208674
16171.23047 16325.11298 15860.64235 0.00006183821
16353.08984 16319.53956 15857.71758 0.00006115052
16211.7002 16314.4535 15854.6907 0.00006168384
16261.83984 16309.84164 15851.5623 0.00006149366
15863.74023 16305.71182 15848.33296 0.00006303684
16449.2207 16302.06709 15845.0033 0.00006079315
16363.17969 16298.91196 15841.57395 0.00006111282
16345.79004 16296.25514 15838.04554 0.00006117783
16287.76953 16294.10643 15834.41875 0.00006139576
16399.41016 16292.47767 15830.69423 0.0000609778
16291.36035 16291.38217 15826.87269 0.00006138223
16473.58008 16290.8407 15822.95482 0.00006070326
16318.33008 16290.86551 15818.94135 0.00006128078
16181.08008 16291.48039 15814.83302 0.00006180057
16255.58984 16292.70707 15810.63056 0.0000615173
16184.48047 16294.57179 15806.33474 0.00006178759
16334.07031 16297.10122 15801.94634 0.00006122173
16211.82031 16300.32337 15797.46616 0.00006168339
16279.19043 16304.26752 15792.89498 0.00006142812
16418.03906 16308.96343 15788.23364 0.00006090861
16407.42969 16314.44343 15783.48296 0.000060948
16358.38965 16320.73792 15778.64379 0.00006113071
16118.11035 16327.87559 15773.71698 0.00006204201
16040.21973 16335.88255 15768.7034 0.00006234329
16126.53027 16344.78392 15763.60393 0.00006200962
16094.54004 16354.59747 15758.41946 0.00006213287
16452.55078 16365.33367 15753.15089 0.00006078085
16220.55957 16376.99195 15747.79914 0.00006165015
16055.83008 16389.5628 15742.36514 0.00006228267
16452.60938 16403.01917 15736.84981 0.00006078063
16368 16417.3139 15731.25412 0.00006109482
16255.32031 16432.37568 15725.579 0.00006151832
16425.66992 16448.11011 15719.82544 0.00006088032
16460.41016 16464.38926 15713.9944 0.00006075183
16423.99023 16481.04947 15708.08688 0.00006088654
16278.75 16497.88804 15702.10386 0.00006142978
16556.91992 16514.66644 15696.04635 0.00006039771
16392.32031 16531.10369 15689.91536 0.00006100418
16473.2793 16546.87948 15683.71192 0.00006070437
16351.75 16561.63954 15677.43705 0.00006115553
16445.19922 16575.0082 15671.09178 0.00006080802
16608.33008 16586.58999 15664.67716 0.00006021075
16766.55078 16595.99294 15658.19424 0.00005964256
16525.09961 16602.83878 15651.64407 0.00006051401
16478.01953 16606.78455 15645.02773 0.0000606869
16455.81055 16607.5407 15638.34628 0.00006076881
16565.23047 16604.88665 15631.60079 0.00006036741
16755.7207 16598.68318 15624.79235 0.00005968111
16653.67969 16588.8835 15617.92204 0.00006004679
16630.39062 16575.53351 15610.99096 0.00006013088
16438.60938 16558.77079 15604.0002 0.0000608324
16325.78027 16538.81489 15596.95087 0.00006125282
16556.4707 16515.95519 15589.84407 0.00006039935
16546.58984 16490.53081 15582.68091 0.00006043541
16409.64062 16462.91695 15575.4625 0.00006093979
16492.25977 16433.50498 15568.18996 0.0000606345
16457.74023 16402.68774 15560.86441 0.00006076168
16401.91992 16370.83958 15553.48697 0.00006096847
16304.03027 16338.3119 15546.05877 0.00006133453
16466.94922 16305.42391 15538.58094 0.0000607277
16258.63965 16272.45733 15531.05459 0.00006150576
16352.98047 16239.65031 15523.48088 0.00006115093
16412.16016 16207.20344 15515.86091 0.00006093043
16339.48047 16175.2801 15508.19585 0.00006120146
16288.33984 16144.02274 15500.4868 0.00006139361
16261.79004 16113.499 15492.73492 0.00006149385
16192.38965 16083.79096 15484.94133 0.00006175741
16317.91016 16054.94501 15477.10717 0.00006128236
16182 16026.98712 15469.23357 0.00006179706
16326.29004 15999.92832 15461.32168 0.0000612509
16331.57031 15973.76418 15453.37262 0.0000612311
16178.99023 15948.48171 15445.38752 0.00006180855
15954.40039 15924.06086 15437.36752 0.00006267863
15858.74023 15900.47632 15429.31374 0.00006305671
16004.54004 15877.70296 15421.22732 0.00006248227
15806.44043 15855.69459 15413.10938 0.00006326535
16119.33984 15834.42374 15404.96104 0.00006203728
15789.58008 15813.85582 15396.78343 0.00006333291
15769.73047 15793.95451 15388.57765 0.00006341262
15846.53027 15774.68485 15380.34482 0.0000631053
15764.2998 15756.01319 15372.08606 0.00006343447
15830.65039 15737.90736 15363.80247 0.0000631686
15720.7002 15720.33491 15355.49516 0.0000636104
15677.37988 15703.26573 15347.16522 0.00006378617
15709.28027 15686.67159 15338.81375 0.00006365664
15417.25977 15670.52594 15330.44183 0.00006486237
15871.04004 15654.80271 15322.05056 0.00006300784
15565.21973 15639.47798 15313.64101 0.0000642458
15722.67969 15624.52959 15305.21425 0.00006360239
15572.5498 15609.93704 15296.77136 0.00006421556
15865.78027 15595.68031 15288.3134 0.00006302873
15595.78027 15581.74108 15279.84142 0.00006411991
15426.88965 15568.10281 15271.35648 0.00006482188
15416.76953 15554.74964 15262.85961 0.00006486443
15383.11035 15541.66736 15254.35186 0.00006500636
15486.7998 15528.84203 15245.83426 0.00006457112
15879.78027 15516.2611 15237.30783 0.00006297316
15629.19043 15503.91321 15228.77358 0.00006398284
15477 15491.78791 15220.23253 0.000064612
15593.0498 15479.87499 15211.68566 0.00006413114
15811.15039 15468.16532 15203.13399 0.0000632465
15470.46973 15456.65084 15194.57848 0.00006463928
15281.91016 15445.32384 15186.02012 0.00006543685
15519.66992 15434.17731 15177.45987 0.00006443436
15669.63965 15423.20465 15168.8987 0.00006381768
15408.67969 15412.40018 15160.33754 0.00006489849
15421.66992 15401.75871 15151.77735 0.00006484382
15362.92969 15391.27519 15143.21905 0.00006509175
15447.75 15380.9452 15134.66356 0.00006473435
15264.66016 15370.76505 15126.1118 0.00006551079
15153.62012 15360.73129 15117.56467 0.00006599083
15407.49023 15350.84069 15109.02307 0.0000649035
15392.26953 15341.09039 15100.48786 0.00006496768
15252.03027 15331.47836 15091.95994 0.00006556504
15176.08008 15322.0026 15083.44015 0.00006589317
15457.83008 15312.66134 15074.92936 0.00006469213
15089.12012 15303.45308 15066.42839 0.00006627292
15310.26953 15294.3771 15057.93809 0.00006531564
15160.32031 15285.43256 15049.45926 0.00006596167
15472.36035 15276.61911 15040.99272 0.00006463138
15108.98047 15267.93653 15032.53927 0.0000661858
15223.05957 15259.38488 15024.09969 0.00006568982
15155.33984 15250.96483 15015.67475 0.00006598334
15399.98047 15242.67704 15007.26522 0.00006493515
15422.25977 15234.52248 14998.87184 0.00006484134
15529.58008 15226.50229 14990.49536 0.00006439324
15402.80957 15218.61836 14982.1365 0.00006492322
15437.17969 15210.87242 14973.79599 0.00006477867
15430.62012 15203.26666 14965.47451 0.00006480621
15121.08008 15195.80338 14957.17277 0.00006613284
15306.36035 15188.48566 14948.89144 0.00006533232
15072.07031 15181.31654 14940.63119 0.00006634789
15244.12012 15174.29944 14932.39268 0.00006559906
15376.12988 15167.43802 14924.17653 0.00006503587
15047.42969 15160.73452 14915.9834 0.00006645653
15414.87988 15154.19785 14907.81388 0.00006487238
15286.83984 15147.83078 14899.66859 0.00006541574
14977.91016 15141.63848 14891.54811 0.00006676499
15050.83984 15135.62712 14883.45303 0.00006644148
15029.19043 15129.80289 14875.38391 0.00006653718
15188.83984 15124.17268 14867.34131 0.00006583781
15178.12012 15118.74349 14859.32576 0.00006588431
15132.08008 15113.5238 14851.33779 0.00006608477
15169.15039 15108.52083 14843.37792 0.00006592327
15187.90039 15103.74569 14835.44665 0.00006584189
15060.5 15099.20912 14827.54446 0.00006639886
15023.41016 15094.91764 14819.67183 0.00006656278
14947.30957 15090.88491 14811.82922 0.00006690167
14973.32031 15087.12253 14804.01709 0.00006678545
15219.49023 15083.64356 14796.23587 0.00006570522
15118.24023 15080.46128 14788.48598 0.00006614526
15028.84961 15077.59096 14780.76783 0.00006653869
15206.88965 15075.04764 14773.08182 0.00006575967
14959.66016 15072.84791 14765.42833 0.00006684644
14867.69043 15071.0096 14757.80774 0.00006725994
15082.74023 15069.54987 14750.2204 0.00006630095
15104.87012 15068.48834 14742.66665 0.00006620381
14927.12988 15067.84526 14735.14684 0.00006699211
15178.84961 15067.64089 14727.66127 0.00006588115
14790.54004 15067.89764 14720.21026 0.00006761078
15142.20996 15068.63675 14712.79409 0.00006604056
15292.16016 15069.88075 14705.41306 0.00006539299
14994.37012 15071.65101 14698.06741 0.0000666917
15144 15073.97014 14690.75742 0.00006603275
15054.2998 15076.85811 14683.48332 0.0000664262
14996.11035 15080.33432 14676.24533 0.00006668396
15285.38965 15084.4148 14669.04369 0.00006542195
15321.58984 15089.11219 14661.87859 0.00006526738
14803.78027 15094.43613 14654.75022 0.00006755031
15004.73047 15100.38796 14647.65877 0.00006664565
15075.69043 15106.96313 14640.60439 0.00006633195
15150.16992 15114.14546 14633.58725 0.00006600586
15123.70996 15121.91064 14626.60748 0.00006612134
15149.83008 15130.21713 14619.66523 0.00006600734
15013.88965 15139.00957 14612.76059 0.00006660499
15156.65039 15148.2121 14605.89369 0.00006597764
15116.75 15157.73196 14599.06461 0.00006615179
15033.75 15167.45077 14592.27345 0.000066517
14922.37012 15177.22951 14585.52026 0.00006701348
15217.65039 15186.90378 14578.8051 0.00006571317
15309.26953 15196.29118 14572.12804 0.0000653199
15133.08008 15205.18668 14565.48909 0.0000660804
15113.41992 15213.3735 14558.8883 0.00006616636
15286.51953 15220.62463 14552.32566 0.00006541711
15049.04004 15226.71646 14545.80119 0.00006644942
14895.83008 15231.43202 14539.31487 0.00006713288
15021.00977 15234.57624 14532.86669 0.00006657342
15030.50977 15235.98275 14526.45662 0.00006653134
14999.12012 15235.52611 14520.08461 0.00006667058
15038.46973 15233.12669 14513.75062 0.00006649613
15036.94043 15228.75752 14507.45458 0.00006650289
14958.96973 15222.44465 14501.19642 0.00006684952
15017.48047 15214.26805 14494.97606 0.00006658907
15028.40039 15204.35288 14488.79342 0.00006654068
15236.5498 15192.86714 14482.64838 0.00006563166
15332.84961 15180.00886 14476.54084 0.00006521945
14962.66016 15165.99906 14470.47067 0.00006683304
15177.12988 15151.06801 14464.43775 0.00006588861
14972.95996 15135.4499 14458.44194 0.00006678706
14984.83008 15119.37107 14452.48308 0.00006673416
15174.91992 15103.0471 14446.56103 0.00006589821
15204.99023 15086.67297 14440.67561 0.00006576788
15197.09961 15070.43004 14434.82665 0.00006580203
15010.66992 15054.46251 14429.01397 0.00006661928
15122.86035 15038.90673 14423.23737 0.00006612506
14969.24023 15023.87128 14417.49666 0.00006680366
14876.38965 15009.44658 14411.79162 0.00006722061
15063.08008 14995.70293 14406.12204 0.00006638748
15133.03027 14982.69646 14400.4877 0.00006608062
14804.41992 14970.46847 14394.88837 0.00006754739
14792.11035 14959.05012 14389.3238 0.00006760361
14976.13965 14948.4619 14383.79375 0.00006677288
14916.12988 14938.7182 14378.29797 0.00006704152
14880.37012 14929.84023 14372.8362 0.00006720263
14916.21973 14921.80709 14367.40817 0.00006704111
14829.73047 14914.63251 14362.01361 0.00006743211
15175.21973 14908.31644 14356.65223 0.0000658969
14781.28027 14902.8585 14351.32376 0.00006765314
14949.80957 14898.25753 14346.0279 0.00006689048
14914.12012 14894.51342 14340.76434 0.00006705055
14980.0498 14891.62624 14335.5328 0.00006675545
15090.87988 14889.59873 14330.33296 0.00006626519
15082.83008 14888.43532 14325.1645 0.00006630055
14949.17969 14888.14745 14320.02711 0.0000668933
14931.74023 14888.73229 14314.92046 0.00006697143
15131.13965 14890.20661 14309.84422 0.00006608888
15117.62988 14892.5846 14304.79806 0.00006614794
14779.58984 14895.88225 14299.78164 0.00006766088
14904.84961 14900.11833 14294.79461 0.00006709226
14943.92969 14905.31365 14289.83663 0.0000669168
15351.74023 14911.49504 14284.90734 0.00006513919
14866.12988 14918.6887 14280.0064 0.000067267
14931.46973 14926.92436 14275.13344 0.00006697264
15153.13965 14936.23301 14270.2881 0.00006599292
15035.30957 14946.65208 14265.47002 0.0000665101
14927.24023 14958.21685 14260.67882 0.00006699162
14988.25977 14970.96533 14255.91415 0.00006671889
15186.62988 14984.9351 14251.17561 0.00006584739
15099.48047 15000.16961 14246.46284 0.00006622744
15046.34961 15016.70663 14241.77546 0.0000664613
14934.91992 15034.58444 14237.11309 0.00006695717
15269.54004 15053.83641 14232.47534 0.00006548986
15160.9502 15074.49925 14227.86183 0.00006595893
14882.90039 15096.59709 14223.27217 0.0000671912
15012.32031 15120.14843 14218.70597 0.00006661195
15086.38965 15145.16095 14214.16285 0.00006628491
15037.74023 15171.62953 14209.64241 0.00006649935
15204.87988 15199.53684 14205.14427 0.00006576836
15045.36035 15228.83987 14200.66802 0.00006646567
15202.58008 15259.47281 14196.21329 0.00006577831
15256.37012 15291.34257 14191.77966 0.00006554639
15425.25977 15324.32657 14187.36676 0.00006482873
15377.04004 15358.25908 14182.97418 0.00006503202
15469.08008 15392.93513 14178.60154 0.00006464509
15353.40039 15428.10033 14174.24843 0.00006513215
15483.67969 15463.46357 14169.91447 0.00006458413
15617.08984 15498.67286 14165.59927 0.00006403242
15247.36035 15533.33124 14161.30242 0.00006558512
15515.7998 15566.99318 14157.02355 0.00006445043
15595.9502 15599.18459 14152.76225 0.00006411921
15613.44043 15629.39087 14148.51814 0.00006404738
15761.5 15657.08487 14144.29084 0.00006344574
15797.88965 15681.73657 14140.07995 0.00006329959
15723.53027 15702.8429 14135.8851 0.00006359895
15507.20996 15719.93118 14131.70589 0.00006448613
15582.5 15732.59217 14127.54195 0.00006417455
15757.34961 15740.49751 14123.3929 0.00006346245
15776.62012 15743.41049 14119.25836 0.00006338493
15890.16992 15741.20706 14115.13795 0.00006293199
15923.7998 15733.87628 14111.03132 0.00006279908
15767.98047 15721.52293 14106.93808 0.00006341966
15976.45996 15704.36262 14102.85786 0.00006259209
15698.62988 15682.70492 14098.79032 0.00006369983
15522.78027 15656.94509 14094.73508 0.00006442145
15748.71973 15627.54118 14090.69178 0.00006349723
15945.33008 15594.99445 14086.66009 0.00006271429
15736.19043 15559.82436 14082.63963 0.00006354778
15410.05957 15522.55617 14078.63007 0.00006489268
15317.04004 15483.70467 14074.63106 0.00006528677
15407.86035 15443.75565 14070.64227 0.00006490194
15491.21973 15403.15416 14066.66335 0.0000645527
15384.75 15362.30767 14062.69398 0.00006499943
15275.23047 15321.5733 14058.73383 0.00006546546
15219.12012 15281.2635 14054.78257 0.00006570682
15230.75 15241.63082 14050.83989 0.00006565665
15165.24023 15202.89369 14046.90547 0.00006594027
15125.87988 15165.22383 14042.979 0.00006611186
14830.84961 15128.75839 14039.06018 0.00006742702
15011.20996 15093.59071 14035.14871 0.00006661688
15092.7002 15059.79467 14031.24429 0.0000662572
15047.28027 15027.41582 14027.34663 0.00006645719
14690.17969 14996.48131 14023.45545 0.00006807269
14973.92969 14966.99308 14019.57046 0.00006678274
14802.94043 14938.94733 14015.69139 0.00006755415
14829.50977 14912.32634 14011.81798 0.00006743311
14763.30957 14887.10523 14007.94995 0.00006773549
14957.25977 14863.25077 14004.08706 0.00006685717
14750.83008 14840.7246 14000.22904 0.0000677928
14603.12988 14819.48803 13996.37565 0.00006847847
14716.90039 14799.4999 13992.52665 0.00006794909
14711.67969 14780.71801 13988.6818 0.0000679732
14760.0498 14763.09795 13984.84088 0.00006775045
14382.84961 14746.59897 13981.00366 0.00006952725
14368.84961 14731.1846 13977.16992 0.00006959499
14707.53027 14716.80908 13973.33945 0.00006799238
14754.53027 14703.43666 13969.51205 0.00006777579
14519.33008 14691.03323 13965.68751 0.0000688737
14367.34961 14679.56609 13961.86565 0.00006960226
14753.95996 14669.00513 13958.04628 0.00006777841
14625.41016 14659.32043 13954.22922 0.00006837415
14843.21973 14650.48678 13950.41429 0.00006737083
14648.91016 14642.4805 13946.60133 0.00006826446
14509.5498 14635.28142 13942.79017 0.00006892013
14344.2998 14628.87127 13938.98067 0.0000697141
14415.38965 14623.2296 13935.17267 0.00006937031
14635.19043 14618.34589 13931.36604 0.00006832846
14493.41016 14614.20807 13927.56063 0.00006899687
14460.50977 14610.806 13923.75633 0.00006915386
14552.42969 14608.13275 13919.95301 0.00006871705
14596.74023 14606.1831 13916.15056 0.00006850845
14529.75977 14604.95522 13912.34887 0.00006882426
14433.91992 14604.44751 13908.54783 0.00006928125
14790.2002 14604.66253 13904.74736 0.00006761234
14763.90039 14605.60378 13900.94737 0.00006773278
14615.25 14607.27757 13897.14778 0.00006842168
14572.15039 14609.69322 13893.34851 0.00006862405
14508.74023 14612.86115 13889.5495 0.00006892397
14576.11035 14616.79447 13885.75069 0.00006860541
14758.83984 14621.50946 13881.95202 0.000067756
14725.16016 14627.02367 13878.15344 0.00006791098
14836.40039 14633.3588 13874.35493 0.00006740179
14829.17969 14640.53762 13870.55644 0.00006743461
14692.62012 14648.58742 13866.75795 0.00006806138
14654.40039 14657.53637 13862.95944 0.00006823889
14839.25977 14667.41828 13859.1609 0.00006738881
14767.86035 14678.26809 13855.36232 0.00006771462
14655.63965 14690.12433 13851.56371 0.00006823312
14904.08008 14703.02979 13847.76506 0.00006709572
14812.5498 14717.0323 13843.9664 0.00006751032
14753.7002 14732.18134 13840.16774 0.00006777961
14804.75977 14748.53091 13836.36911 0.00006754584
14844.67969 14766.14026 13832.57055 0.0000673642
14950.11035 14785.07526 13828.7721 0.00006688914
14936.83984 14805.40355 13824.9738 0.00006694857
14993.86035 14827.1991 13821.17571 0.00006669397
14985.94043 14850.54125 13817.37788 0.00006672921
15133.75 14875.51958 13813.58039 0.00006607748
15055.05957 14902.22402 13809.7833 0.00006642285
15504.37988 14930.75301 13805.98669 0.0000644979
15186.23047 14961.21471 13802.19065 0.00006584913
15001.76953 14993.71912 13798.39527 0.0000666588
15223.46973 15028.39206 13794.60065 0.00006568805
15180 15065.35913 13790.80689 0.00006587615
15150.75 15104.7598 13787.01409 0.00006600333
15478.24023 15146.73516 13783.22238 0.00006460683
15337.2002 15191.44461 13779.43187 0.00006520095
15371.62988 15239.04552 13775.64269 0.00006505491
15301.99023 15289.71054 13771.85498 0.00006535098
15454.99023 15343.61055 13768.06886 0.00006470402
15421.94043 15400.93626 13764.28449 0.00006484268
15546.50977 15461.87161 13760.50201 0.00006432312
15436.01953 15526.60628 13756.72157 0.00006478354
15790.55957 15595.33048 13752.94335 0.00006332898
15399.19043 15668.24199 13749.16749 0.00006493848
15940.15039 15745.51867 13745.39418 0.00006273467
15704.70996 15827.32989 13741.62358 0.00006367517
15951.29004 15913.82776 13737.85587 0.00006269085
16099.74023 16005.14919 13734.09125 0.0000621128
16074.04004 16101.38055 13730.3299 0.00006221211
16123.57031 16202.56411 13726.57201 0.000062021
16149.12988 16308.68354 13722.81779 0.00006192284
16339.67969 16419.6601 13719.06744 0.00006120071
16553.60938 16535.30345 13715.32117 0.00006040979
16563.94922 16655.31523 13711.57918 0.00006037208
16717.42969 16779.27604 13707.8417 0.00005981781
16906.26953 16906.59403 13704.10894 0.00005914965
16951.81055 17036.53527 13700.38114 0.00005899075
17427.42969 17168.14812 13696.65852 0.00005738081
17103.49023 17300.29835 13692.94131 0.0000584676
17399.35938 17431.62518 13689.22975 0.00005747338
17338.83008 17560.59311 13685.52408 0.00005767402
17494.21094 17685.45037 13681.82455 0.00005716177
17520.5293 17804.31164 13678.1314 0.0000570759
17787.57031 17915.16162 13674.44488 0.00005621903
17573.78906 18015.96154 13670.76524 0.00005690292
17927.99023 18104.68141 13667.09275 0.0000557787
17934.08984 18179.41053 13663.42766 0.00005575973
18411.81055 18238.44997 13659.77023 0.00005431296
18273.91016 18280.39268 13656.12073 0.00005472283
18428.46094 18304.19553 13652.47943 0.00005426389
18152.9707 18309.25004 13648.8466 0.0000550874
18076.59961 18295.41438 13645.22252 0.00005532014
18052.48047 18263.01211 13641.60745 0.00005539405
18073.14062 18212.82598 13638.00167 0.00005533073
18059.08984 18146.04486 13634.40547 0.00005537378
18130.35938 18064.19907 13630.81912 0.0000551561
18048.40039 17969.06091 13627.24292 0.00005540657
17952.40039 17862.58986 13623.67714 0.00005570286
18007.75 17746.82475 13620.12207 0.00005553165
17609.53906 17623.79653 13616.578 0.0000567874
17263.00977 17495.48576 13613.04521 0.00005792733
17095.82031 17363.71983 13609.52401 0.00005849383
17393.50977 17230.19309 13606.01468 0.00005749271
17292.5293 17096.38918 13602.51752 0.00005782844
17232.83984 16963.61153 13599.03281 0.00005802874
16976.08984 16832.93264 13595.56085 0.00005890638
17031.83984 16705.26001 13592.10195 0.00005871356
16551.18945 16581.29713 13588.65639 0.00006041862
16453.81055 16461.60539 13585.22446 0.0000607762
16506.60938 16346.57512 13581.80648 0.00006058179
16298.07031 16236.49398 13578.40272 0.00006135696
16183.62988 16131.54307 13575.0135 0.00006179083
16316.37012 16031.81062 13571.6391 0.00006128814
16102.12988 15937.30835 13568.27982 0.00006210359
15837.76953 15848.00715 13564.93596 0.0000631402
15744.58984 15763.83439 13561.60781 0.00006351388
16082.15039 15684.67926 13558.29567 0.00006218074
15502.41016 15610.40484 13554.99983 0.0000645061
15628.51953 15540.86986 13551.72058 0.00006398559
15470.16016 15475.92428 13548.45822 0.00006464057
15327.48047 15415.40771 13545.21304 0.00006524229
15217.0498 15359.15818 13541.98533 0.00006571576
15391.74023 15307.02381 13538.77538 0.00006496991
15281.28027 15258.8592 13535.58346 0.00006543954
15251.25 15214.517 13532.40988 0.0000655684
15276.37988 15173.86922 13529.25492 0.00006546054
15181.20996 15136.78308 13526.11885 0.0000658709
15117.48047 15103.14979 13523.00195 0.00006614859
15024.16016 15072.85807 13519.90451 0.00006655946
15236.54004 15045.81425 13516.82681 0.0000656317
14956.54004 15021.92342 13513.76911 0.00006686038
14969.5 15001.10996 13510.73168 0.0000668025
14958.45996 14983.29476 13507.71481 0.0000668518
15020.59961 14968.41066 13504.71875 0.00006657524
15053.26953 14956.38804 13501.74376 0.00006643075
14845.71973 14947.16223 13498.79012 0.00006735948
14949.55957 14940.67161 13495.85807 0.0000668916
14983.44043 14936.84427 13492.94788 0.00006674035
14878.54004 14935.60359 13490.0598 0.0000672109
14943.44043 14936.86255 13487.19407 0.00006691899
14915.54004 14940.52553 13484.35094 0.00006704417
15025.07031 14946.47019 13481.53065 0.00006655543
15137.55957 14954.5543 13478.73345 0.00006606085
15094.00977 14964.6057 13475.95956 0.00006625145
15028.15039 14976.42501 13473.20923 0.00006654179
15085.44043 14989.76636 13470.48267 0.00006628908
14982.33984 15004.35019 13467.78012 0.00006674525
15046.71973 15019.84354 13465.10178 0.00006645967
15040.59961 15035.87982 13462.44789 0.00006648671
15097.9502 15052.03861 13459.81864 0.00006623416
15064.09961 15067.86445 13457.21426 0.00006638299
15247.2998 15082.86702 13454.63493 0.00006558538
15190.13965 15096.53997 13452.08087 0.00006583218
15220.90039 15108.36383 13449.55226 0.00006569914
15191.99023 15117.83249 13447.04929 0.00006582416
15250.42969 15124.46943 13444.57215 0.00006557192
15133.08984 15127.85063 13442.12102 0.00006608036
15079.33984 15127.61824 13439.69608 0.0000663159
14944.01953 15123.50402 13437.29749 0.0000669164
15249.51953 15115.34024 13434.92543 0.00006557584
15124.41992 15103.06589 13432.58004 0.00006611824
15228.41992 15086.74087 13430.2615 0.00006566669
15105.32031 15066.50185 13427.96994 0.00006620184
14915.7998 15042.60844 13425.70551 0.000067043
14996.38965 15015.39349 13423.46836 0.00006668272
14976.24023 14985.24687 13421.25861 0.00006677243
14742.29004 14952.60429 13419.07639 0.00006783207
14815.49023 14917.91876 13416.92184 0.00006749692
14945.20996 14881.6491 13414.79506 0.00006691107
14981.13965 14844.23184 13412.69616 0.0000667506
14920.54004 14806.08021 13410.62527 0.0000670217
14415.62988 14767.56448 13408.58246 0.00006936915
14745.46973 14729.01134 13406.56785 0.00006781744
14982.91016 14690.69627 13404.58151 0.00006674271
14610.49023 14652.83738 13402.62354 0.00006844397
14738.75 14615.61309 13400.69401 0.00006784836
14378.49023 14579.15899 13398.79298 0.00006954833
14579.46973 14543.56492 13396.92053 0.0000685896
14403.46973 14508.89437 13395.07671 0.00006942772
14242.46973 14475.18489 13393.26158 0.00007021254
14304.42969 14442.45294 13391.47518 0.00006990841
14440.50977 14410.70071 13389.71756 0.00006924963
14190.75977 14379.92663 13387.98874 0.00007046839
14417.74023 14350.12454 13386.28876 0.000069359
14359.61035 14321.28426 13384.61764 0.00006963977
14255.20996 14293.40147 13382.97539 0.00007014979
14317.99023 14266.46921 13381.36202 0.0000698422
14056.78027 14240.48671 13379.77754 0.00007114005
14199.76953 14215.4512 13378.22194 0.00007042368
14151.12988 14191.36457 13376.69521 0.00007066574
14185.17969 14168.22514 13375.19734 0.00007049611
13979.74023 14146.03277 13373.7283 0.00007153209
14134.63965 14124.78269 13372.28807 0.00007074818
13990.79004 14104.47095 13370.87661 0.00007147559
13958.23047 14085.0874 13369.49387 0.00007164232
13781.55957 14066.62199 13368.13981 0.00007256073
13859.2002 14049.05921 13366.81437 0.00007215424
13922.86035 14032.38283 13365.51749 0.00007182432
14039.29004 14016.57268 13364.24911 0.00007122867
14106.12012 14001.60912 13363.00915 0.00007089122
13920.16992 13987.46835 13361.79753 0.0000718382
13852.07031 13974.12825 13360.61417 0.00007219137
13863.90039 13961.56398 13359.45896 0.00007212977
13907.57031 13949.7527 13358.33181 0.00007190329
13680.41016 13938.67116 13357.23261 0.00007309722
14023.20996 13928.29604 13356.16126 0.00007131035
13705.38965 13918.60475 13355.11762 0.000072964
13921.61035 13909.5772 13354.10159 0.00007183077
14019.55957 13901.19378 13353.11302 0.00007132892
13860.88965 13893.43516 13352.15177 0.00007214544
13789.86035 13886.2848 13351.21771 0.00007251705
13859.9502 13879.72717 13350.31068 0.00007215033
13935.67969 13873.74826 13349.43052 0.00007175825
13917.21973 13868.33496 13348.57708 0.00007185343
13978.16016 13863.47666 13347.75018 0.00007154017
14067.38965 13859.16396 13346.94965 0.00007108639
14004.20996 13855.38921 13346.17531 0.0000714071
13832.75 13852.1455 13345.42697 0.00007229221
13920.5 13849.42851 13344.70444 0.0000718365
14014.11035 13847.23448 13344.00752 0.00007135665
13632.20996 13845.56248 13343.336 0.00007335568
13810.7002 13844.41196 13342.68967 0.00007240762
13899.42969 13843.7842 13342.06832 0.0000719454
13826.19043 13843.68164 13341.47172 0.0000723265
13829.61035 13844.10972 13340.89964 0.00007230862
13852.7998 13845.07345 13340.35186 0.00007218757
14014.48047 13846.58037 13339.82813 0.00007135477
13634.94043 13848.63936 13339.32821 0.00007334099
13864.73047 13851.2605 13338.85185 0.00007212546
13646.05957 13854.45467 13338.39878 0.00007328123
13933.71973 13858.23692 13337.96876 0.00007176834
13945.88965 13862.62099 13337.56151 0.00007170572
13719.44043 13867.62186 13337.17676 0.00007288927
13565.66016 13873.25676 13336.81424 0.00007371554
13998.58008 13879.54358 13336.47366 0.00007143582
13864.17969 13886.50118 13336.15474 0.00007212832
13831.23047 13894.149 13335.85718 0.00007230015
13862.12988 13902.50517 13335.5807 0.00007213899
13919.11035 13911.59324 13335.32497 0.00007184367
13848.83984 13921.4314 13335.08971 0.00007220821
14222.01953 13932.03809 13334.8746 0.0000703135
13855.5 13943.43098 13334.67933 0.00007217351
13849.37988 13955.62541 13334.50357 0.0000722054
13697.24023 13968.63362 13334.347 0.00007300741
14014.32031 13982.46373 13334.20929 0.00007135558
13860.59961 13997.11804 13334.09011 0.00007214695
14019.9502 14012.5919 13333.98912 0.00007132693
13942.05957 14028.87716 13333.90599 0.00007172541
13896.51953 14045.94991 13333.84036 0.00007196046
13904.41992 14063.776 13333.7919 0.00007191958
14128.37988 14082.30791 13333.76024 0.00007077952
13905.9502 14101.48202 13333.74502 0.00007191166
14085.66016 14121.21661 13333.7459 0.00007099419
14161.58984 14141.41014 13333.76251 0.00007061354
14295.90039 14161.93498 13333.79448 0.00006995012
14326.13965 14182.65312 13333.84144 0.00006980247
14310.2002 14203.3919 13333.90302 0.00006988022
14124.99023 14223.9585 13333.97884 0.00007079651
14026.2998 14244.13965 13334.06852 0.00007129464
14515.20996 14263.70318 13334.17169 0.00006889325
14204.7002 14282.40283 13334.28795 0.00007039923
14306.80957 14299.98347 13334.41692 0.00006989679
14487.57031 14316.18615 13334.55822 0.00006902469
14428.58984 14330.76628 13334.71144 0.00006930684
14691.41016 14343.48686 13334.87619 0.00006806699
14273.91016 14354.13863 13335.05208 0.00007005789
14218.54004 14362.54601 13335.23871 0.00007033071
14163.28027 14368.57517 13335.43567 0.00007060511
14618.88965 14372.14034 13335.64257 0.00006840465
14499.16992 14373.2078 13335.85899 0.00006896947
14528.34961 14371.79825 13336.08454 0.00006883094
14578.61035 14367.98668 13336.3188 0.00006859364
14326.99023 14361.89333 13336.56137 0.00006979833
14611.70996 14353.68778 13336.81183 0.00006843826
14506.5 14343.57369 13337.06977 0.00006893462
14502.38965 14331.7842 13337.33478 0.00006895415
14303.53027 14318.57182 13337.60645 0.00006991281
14435.79004 14304.19973 13337.88436 0.00006927227
14276.16992 14288.93346 13338.16808 0.0000700468
14550.96973 14273.03757 13338.45722 0.00006872394
14218.2998 14256.75306 13338.75135 0.0000703319
14426.58008 14240.31901 13339.05005 0.0000693165
14280.99023 14223.94927 13339.3529 0.00007002316
14206.66016 14207.8377 13339.65949 0.00007038952
14179.87988 14192.15572 13339.9694 0.00007052246
14349.26953 14177.0533 13340.2822 0.00006968996
14145.38965 14162.65943 13340.5975 0.00007069441
14073.13965 14149.08743 13340.91485 0.00007105735
14186.5498 14136.42089 13341.23385 0.0000704893
14238.16016 14124.73966 13341.55409 0.00007023379
14080.4502 14114.1075 13341.87514 0.00007102046
14074.2998 14104.57466 13342.19658 0.00007105149
14067.91016 14096.18288 13342.51802 0.00007108376
14216.12012 14088.96621 13342.83902 0.00007034268
14048.73047 14082.95257 13343.15918 0.00007118081
14051.11035 14078.16723 13343.47809 0.00007116875
14342.04004 14074.63027 13343.79533 0.00006972509
14050.67969 14072.35618 13344.1105 0.00007117093
13982.20996 14071.36839 13344.4232 0.00007151945
13950.32031 14071.68228 13344.73301 0.00007168294
14173.87988 14073.31555 13345.03953 0.00007055231
14361.98047 14076.2864 13345.34236 0.00006962828
14246.01953 14080.61359 13345.6411 0.00007019505
14200.48047 14086.3171 13345.93535 0.00007042015
14114.88965 14093.41648 13346.22472 0.00007084717
14280.16992 14101.92866 13346.50882 0.00007002718
14072.91992 14111.87209 13346.78725 0.00007105846
14133.87012 14123.26656 13347.05962 0.00007075203
14060.57031 14136.12201 13347.32555 0.00007112087
14270.59961 14150.4451 13347.58466 0.00007007414
14165.08984 14166.23325 13347.83657 0.00007059609
14018.37988 14183.477 13348.08089 0.00007133492
14112.63965 14202.15124 13348.31727 0.00007085847
14201.71973 14222.20891 13348.54532 0.00007041401
14278.5 14243.58651 13348.76468 0.00007003537
14406.66016 14266.19938 13348.97498 0.00006941234
14135.59961 14289.92431 13349.17587 0.00007074337
14463.61035 14314.60731 13349.36699 0.00006913903
14298.16992 14340.05588 13349.54798 0.00006993902
14140.58984 14366.03646 13349.7185 0.00007071841
14201.42969 14392.27446 13349.8782 0.00007041545
14209.25 14418.45152 13350.02674 0.00007037669
14150.34961 14444.20519 13350.16378 0.00007066963
14645.5498 14469.15784 13350.28899 0.00006828013
14502.08984 14492.89183 13350.40205 0.00006895558
14273.19043 14514.98433 13350.50262 0.00007006142
14544.50977 14535.01833 13350.59039 0.00006875447
14545.12988 14552.60317 13350.66504 0.00006875153
14759.82031 14567.37729 13350.72627 0.0000677515
14388.79004 14579.05182 13350.77376 0.00006949855
14482.20996 14587.40487 13350.80722 0.00006905023
14394.62012 14592.30513 13350.82635 0.0000694704
14638.08984 14593.70754 13350.83086 0.00006831492
14539 14591.662 13350.82046 0.00006878052
14864.25977 14586.3046 13350.79488 0.00006727547
14758.53027 14577.84727 13350.75384 0.00006775742
14644.53027 14566.56397 13350.69707 0.00006828488
14650.78027 14552.774 13350.62431 0.00006825575
14531.69043 14536.82152 13350.53529 0.00006881512
14675.12012 14519.05427 13350.42976 0.00006814254
14687.83008 14499.8087 13350.30749 0.00006808358
14330.42969 14479.40523 13350.16821 0.00006978158
14227.48047 14458.12686 13350.01171 0.00007028651
14584.05957 14436.21648 13349.83775 0.00006856801
14334.83984 14413.87382 13349.6461 0.00006976011
14357.42969 14391.25662 13349.43654 0.00006965035
14094.08008 14368.48046 13349.20888 0.00007095178
14273.94043 14345.63191 13348.96289 0.00007005774
14333.16992 14322.75472 13348.69838 0.00006976824
14297.86035 14299.88684 13348.41516 0.00006994053
14325.92969 14277.04728 13348.11304 0.0000698035
14112.41992 14254.24876 13347.79185 0.00007085957
14233.87988 14231.50257 13347.45139 0.00007025491
14066.23047 14208.82448 13347.09152 0.00007109225
14279.62012 14186.23485 13346.71206 0.00007002987
14344.05957 14163.76698 13346.31287 0.00006971527
14331.59961 14141.45181 13345.89379 0.00006977588
14211.95996 14119.33864 13345.45468 0.00007036327
14547.2998 14097.47928 13344.99542 0.00006874128
14355.82031 14075.92919 13344.51587 0.00006965816
13965.75 14054.7462 13344.01591 0.00007160374
13855.19043 14033.98699 13343.49543 0.00007217512
14134.99023 14013.70375 13342.95433 0.00007074642
14263.57031 13993.94682 13342.39249 0.00007010867
14106.58008 13974.75909 13341.80984 0.0000708889
14042.53027 13956.17504 13341.20627 0.00007121224
13864.07031 13938.22494 13340.58173 0.00007212889
13993.25977 13920.93043 13339.93612 0.00007146298
14061.73047 13904.30682 13339.2694 0.000071115
13909.88965 13888.36173 13338.58149 0.0000718913
13835.08008 13873.09598 13337.87236 0.00007228003
13672.69043 13858.50699 13337.14195 0.00007313849
13813.21973 13844.58821 13336.39023 0.00007239442
13769.2002 13831.32539 13335.61718 0.00007262586
13653.29004 13818.7055 13334.82277 0.00007324242
13752.80957 13806.71145 13334.00698 0.00007271242
13734.66992 13795.32518 13333.16981 0.00007280845
13937.07031 13784.5272 13332.31127 0.00007175109
13741.26953 13774.29704 13331.43134 0.00007277348
13980.08008 13764.61327 13330.53007 0.00007153035
13591.38965 13755.45677 13329.60745 0.00007357599
13786.84961 13746.80544 13328.66353 0.00007253289
13662 13738.64052 13327.69833 0.00007319573
13646.83984 13730.94308 13326.71191 0.00007327704
13856.98047 13723.69475 13325.70431 0.00007216579
13730.66016 13716.87905 13324.6756 0.00007282971
13854.66016 13710.47932 13323.62583 0.00007217788
13617.23047 13704.48005 13322.55508 0.00007343637
13733.17969 13698.86756 13321.46343 0.00007281635
13448.59961 13693.62892 13320.35097 0.00007435718
13761.69043 13688.75174 13319.21779 0.00007266549
13709.9502 13684.22546 13318.06399 0.00007293973
13753.90039 13680.04057 13316.88968 0.00007270665
13645.96973 13676.18914 13315.69499 0.00007328171
13679.03027 13672.66328 13314.48002 0.0000731046
13883.91992 13669.45627 13313.24491 0.00007202577
13706.11035 13666.56313 13311.9898 0.00007296016
13737.2998 13663.97935 13310.71483 0.00007279451
13621.78027 13661.70123 13309.42015 0.00007341184
13635.33008 13659.72641 13308.10593 0.00007333889
13604.98047 13658.05301 13306.77232 0.00007350249
13722.87012 13656.68141 13305.41949 0.00007287105
13692.51953 13655.61126 13304.04763 0.00007303258
13494.46973 13654.84343 13302.65693 0.00007410443
13677.66992 13654.37914 13301.24756 0.00007311187
13644.08984 13654.221 13299.81974 0.00007329181
13677.54004 13654.37092 13298.37367 0.00007311256
13694.54004 13654.83196 13296.90956 0.0000730218
13627.5 13655.60719 13295.42763 0.00007338103
13891.30957 13656.69928 13293.92811 0.00007198745
13823.07031 13658.11179 13292.41122 0.00007234283
13577.07031 13659.84595 13290.87721 0.00007365359
14035.90039 13661.90253 13289.32631 0.00007124587
13542.2998 13664.28091 13287.75879 0.0000738427
13524.0498 13666.97861 13286.1749 0.00007394235
13611.01953 13669.9903 13284.5749 0.00007346988
13606.73047 13673.30737 13282.95906 0.00007349304
13857.90039 13676.91872 13281.32766 0.000072161
13599.12012 13680.80951 13279.68098 0.00007353417
13857.04004 13684.9589 13278.0193 0.00007216548
13881.62012 13689.34168 13276.34293 0.0000720377
13821 13693.92839 13274.65215 0.00007235366
13819.57031 13698.68482 13272.94728 0.00007236115
13830.87012 13703.57305 13271.22862 0.00007230203
13913.34961 13708.55237 13269.4965 0.00007187342
13940.55957 13713.58074 13267.75123 0.00007173313
13788.37012 13718.61991 13265.99313 0.00007252489
13744.28027 13723.63136 13264.22255 0.00007275754
13980.33008 13728.58338 13262.43983 0.00007152907
13873.25 13733.45223 13260.64529 0.00007208116
13732.96973 13738.22459 13258.83929 0.00007281746
13879.08008 13742.89823 13257.02219 0.00007205088
13955.41992 13747.48368 13255.19434 0.00007165675
13943.46973 13752.00577 13253.35611 0.00007171816
14112.98047 13756.49867 13251.50785 0.00007085676
13829.94043 13761.01241 13249.64995 0.00007230689
13961.19043 13765.6029 13247.78278 0.00007162713
14065.7002 13770.33492 13245.90672 0.00007109493
14019.41992 13775.2785 13244.02216 0.00007132963
13998.90039 13780.50732 13242.12949 0.00007143418
14014.62988 13786.09581 13240.2291 0.00007135401
14001.08008 13792.11817 13238.32138 0.00007142306
13943.53027 13798.64597 13236.40675 0.00007171785
14080.08008 13805.75209 13234.4856 0.00007102232
14041.5498 13813.50182 13232.55834 0.00007121721
13968.87988 13821.95854 13230.6254 0.0000715877
14231.07031 13831.18238 13228.68718 0.00007026878
14010.26953 13841.23031 13226.74411 0.00007137621
14111.19043 13852.15675 13224.79661 0.00007086574
14135.49023 13864.01275 13222.8451 0.00007074392
14377.41992 13876.84874 13220.89002 0.00006955351
14048.76953 13890.71671 13218.9318 0.00007118061
13988.33008 13905.66309 13216.97088 0.00007148816
14078.01953 13921.73549 13215.00769 0.00007103272
14067.79004 13938.98082 13213.04268 0.00007108437
14255.13965 13957.44584 13211.07629 0.00007015014
14256.20996 13977.17638 13209.10896 0.00007014487
14294.5 13998.21605 13207.14115 0.00006995698
14240.69043 14020.61174 13205.17331 0.00007022131
14230.58008 14044.39929 13203.20589 0.0000702712
13955.70996 14069.62513 13201.23934 0.00007165526
14077.25 14096.3201 13199.27413 0.0000710366
14414.54004 14124.51284 13197.31072 0.0000693744
14630.76953 14154.22498 13195.34955 0.0000683491
14492.33008 14185.46872 13193.3911 0.00006900202
14652.33008 14218.24229 13191.43584 0.00006824853
14676.70996 14252.53603 13189.48422 0.00006813516
14731.79004 14288.31067 13187.53671 0.00006788041
14558.41016 14325.52444 13185.59378 0.00006868882
14451.16016 14364.09547 13183.6559 0.0000691986
14866.53027 14403.91773 13181.72353 0.00006726519
14750.55957 14444.85386 13179.79716 0.00006779404
15153.32031 14486.7296 13177.87724 0.00006599214
14980.2002 14529.33056 13175.96426 0.00006675478
14920.37988 14572.39705 13174.05868 0.00006702242
15026.96973 14615.62628 13172.16097 0.00006654702
15189.73047 14658.67897 13170.27161 0.00006583395
15294.2998 14701.15452 13168.39106 0.00006538384
15125.46973 14742.61627 13166.51981 0.00006611365
15177.83984 14782.58911 13164.65833 0.00006588553
15525.42969 14820.56783 13162.80707 0.00006441046
15621.75977 14856.0272 13160.96653 0.00006401327
15225.11035 14888.43274 13159.13716 0.00006568097
15348.87012 14917.26611 13157.31944 0.00006515138
15475.44043 14942.0241 13155.51383 0.00006461852
15414.26953 14962.25623 13153.72081 0.00006487495
15730.88965 14977.56457 13151.94084 0.0000635692
15545.59961 14987.6301 13150.17439 0.00006432689
15676.37012 14992.22371 13148.42192 0.00006379028
15792.58008 14991.21572 13146.68389 0.00006332088
15612.70996 14984.58013 13144.96078 0.00006405038
15521.62012 14972.40018 13143.25303 0.00006442626
15765.95996 14954.86004 13141.56111 0.00006342779
15605.25977 14932.22945 13139.88547 0.00006408096
15527.12012 14904.868 13138.22657 0.00006440344
15499.61035 14873.19878 13136.58486 0.00006451775
15374.53027 14837.69461 13134.96079 0.00006504264
15412.87012 14798.86123 13133.35482 0.00006488084
15520.61035 14757.21997 13131.76737 0.00006443046
15017.49023 14713.29562 13130.19891 0.00006658902
15135.17969 14667.59857 13128.64986 0.00006607123
15189.58008 14620.60349 13127.12067 0.0000658346
14953.70996 14572.76759 13125.61177 0.00006687304
14870.12988 14524.50339 13124.12359 0.00006724891
14925.15039 14476.17952 13122.65656 0.000067001
14725.49023 14428.12022 13121.21111 0.00006790945
14614.21973 14380.60391 13119.78766 0.00006842651
14728.70996 14333.86911 13118.38662 0.00006789461
14616.24023 14288.10401 13117.00841 0.00006841705
14434.40039 14243.47252 13115.65345 0.00006927894
14577.92969 14200.08586 13114.32214 0.00006859685
14025.55957 14158.04038 13113.01488 0.0000712984
14177.24023 14117.39999 13111.73208 0.00007053559
14324.33984 14078.20571 13110.47413 0.00006981125
14144.87988 14040.47871 13109.24142 0.00007069696
14235.75 14004.2264 13108.03433 0.00007024568
14029.26953 13969.43504 13106.85326 0.00007127955
14192.53027 13936.09107 13105.69858 0.0000704596
14020.07031 13904.15852 13104.57066 0.00007132632
14022.41992 13873.60616 13103.46987 0.00007131437
13985.62988 13844.39358 13102.39658 0.00007150196
13826.32031 13816.47669 13101.35115 0.00007232582
13826.61035 13789.8091 13100.33392 0.00007232431
13869.70996 13764.34266 13099.34526 0.00007209956
14022.95996 13740.03028 13098.3855 0.00007131162
13558.98047 13716.82207 13097.45498 0.00007375186
13518.58984 13694.66633 13096.55404 0.00007397221
13870.62988 13673.51787 13095.683 0.00007209478
13703.08008 13653.33025 13094.84219 0.00007297629
13745.38965 13634.05829 13094.03193 0.00007275167
13459.66992 13615.6583 13093.25252 0.00007429603
13569.84961 13598.0883 13092.50427 0.00007369278
13535.37012 13581.3092 13091.78749 0.00007388051
13618.0498 13565.28014 13091.10246 0.00007343195
13438.88965 13549.96719 13090.44947 0.00007441091
13530.98047 13535.33201 13089.82881 0.00007390447
13572.32031 13521.34315 13089.24075 0.00007367937
13317.62988 13507.96891 13088.68556 0.00007508844
13758.51953 13495.17944 13088.16351 0.00007268224
13494.08984 13482.94639 13087.67484 0.00007410652
13405.86035 13471.24362 13087.21982 0.00007459424
13610.00977 13460.04426 13086.79868 0.00007347533
13500.11035 13449.32625 13086.41167 0.00007407347
13727.20996 13439.06456 13086.059 0.00007284802
13380.5498 13429.23898 13085.74091 0.00007473534
13197.16992 13419.82933 13085.45762 0.00007577382
13466.79004 13410.81644 13085.20933 0.00007425675
13534.11035 13402.18231 13084.99625 0.00007388738
13299.41016 13393.90992 13084.81857 0.0000751913
13297.55957 13385.98369 13084.67649 0.00007520177
13496.30957 13378.38817 13084.57019 0.00007409433
13525.08008 13371.10783 13084.49983 0.00007393672
13338.66992 13364.13001 13084.4656 0.00007496999
13403.70996 13357.4418 13084.46765 0.00007460621
13599.28027 13351.03103 13084.50613 0.0000735333
13208.42969 13344.88627 13084.58119 0.00007570923
13286.57031 13338.99647 13084.69298 0.00007526397
13262.61035 13333.35173 13084.84161 0.00007539994
13482.24023 13327.9414 13085.02723 0.00007417165
13166.36035 13322.75702 13085.24994 0.00007595113
13263.54004 13317.78854 13085.50985 0.00007539465
13495.5 13313.02785 13085.80706 0.00007409877
13378.32031 13308.46685 13086.14168 0.0000747478
13545.80957 13304.09756 13086.51378 0.00007382357
13442.25977 13299.91237 13086.92345 0.00007439225
13326.2998 13295.90384 13087.37076 0.00007503958
13277.5498 13292.06501 13087.85576 0.0000753151
13225.95996 13288.38866 13088.37853 0.00007560888
13457.87988 13284.86722 13088.93909 0.00007430591
13398.25 13281.4943 13089.53751 0.00007463661
13201.70996 13278.26298 13090.1738 0.00007574776
13252.37988 13275.16652 13090.848 0.00007545814
13173.67969 13272.19808 13091.56011 0.00007590894
13489.58008 13269.35094 13092.31016 0.00007413129
13262.24023 13266.6186 13093.09814 0.00007540204
13087.71973 13263.99434 13093.92405 0.0000764075
13394.12012 13261.47104 13094.78787 0.00007465963
13486.83984 13259.04278 13095.68958 0.00007414635
13351.41016 13256.70318 13096.62915 0.00007489846
13405.21973 13254.44638 13097.60654 0.00007459781
13289.11035 13252.26676 13098.62171 0.00007524958
13408.09961 13250.15897 13099.6746 0.00007458178
13385.74023 13248.11831 13100.76516 0.00007470637
13210.87988 13246.13997 13101.89331 0.00007569519
13404.90039 13244.22018 13103.05898 0.00007459958
13275.38965 13242.35479 13104.26208 0.00007532736
13390.88965 13240.54042 13105.50253 0.00007467764
13220.88965 13238.77394 13106.78021 0.00007563788
13218.45996 13237.05233 13108.09502 0.00007565178
13494.73047 13235.3727 13109.44685 0.000074103
13427.57031 13233.73209 13110.83558 0.00007447364
13281.80957 13232.12777 13112.26106 0.00007529095
13194.0498 13230.55653 13113.72317 0.00007579174
13283.80957 13229.01486 13115.22175 0.00007527961
13222.92969 13227.49972 13116.75666 0.00007562621
13343.65039 13226.00703 13118.32772 0.00007494201
13274.87012 13224.53304 13119.93477 0.0000753303
13439.96973 13223.07344 13121.57764 0.00007440493
13223.2998 13221.62381 13123.25613 0.00007562409
13236.58008 13220.17913 13124.97006 0.00007554822
13202.83008 13218.73472 13126.71922 0.00007574134
13224.62988 13217.28473 13128.50341 0.00007561648
13254.83008 13215.82423 13130.32242 0.0000754442
13408.51953 13214.34705 13132.17602 0.00007457945
13162.0498 13212.84769 13134.06398 0.00007597601
13190.17969 13211.32034 13135.98606 0.00007581398
13224.12012 13209.7592 13137.94202 0.0000756194
13099.96973 13208.15867 13139.93162 0.00007633605
13214.83008 13206.51329 13141.95459 0.00007567256
13380.75 13204.81787 13144.01066 0.00007473423
13250.34961 13203.06797 13146.09957 0.00007546971
13468.67969 13201.25902 13148.22103 0.00007424633
13369.00977 13199.3882 13150.37477 0.00007479986
13097.70996 13197.45346 13152.56047 0.00007634922
13211.16016 13195.45412 13154.77786 0.00007569358
13438.63965 13193.39111 13157.02661 0.00007441229
13081.40039 13191.26767 13159.30641 0.00007644441
13215.5498 13189.08875 13161.61695 0.00007566844
13261.71973 13186.86246 13163.9579 0.000075405
13438.41992 13184.60068 13166.32893 0.00007441351
13043.11035 13182.31718 13168.72968 0.00007666883
13349.04004 13180.03122 13171.15983 0.00007491175
13391.41016 13177.76564 13173.61902 0.00007467473
13368.25977 13175.54784 13176.10688 0.00007480405
13394.48047 13173.40949 13178.62305 0.00007465762
13291.03027 13171.38705 13181.16717 0.00007523871
13304.74023 13169.51993 13183.73885 0.00007516118
13161.0498 13167.85237 13186.33772 0.00007598178
13309.53027 13166.42951 13188.96338 0.00007513413
13371.32031 13165.29914 13191.61544 0.00007478693
13353.94043 13164.50865 13194.2935 0.00007488426
13331.53027 13164.10374 13196.99715 0.00007501014
13119.54004 13164.12693 13199.72598 0.00007622218
13370.2002 13164.61576 13202.47958 0.0000747932
13440.36035 13165.60079 13205.25752 0.00007440277
13490.65039 13167.10484 13208.05938 0.00007412541
13309.01953 13169.14186 13210.88472 0.00007513701
13394.12988 13171.716 13213.73311 0.00007465957
13467.07031 13174.82157 13216.60409 0.0000742552
13350 13178.44336 13219.49724 0.00007490637
13342.70996 13182.55724 13222.41208 0.00007494729
13414.00977 13187.13146 13225.34817 0.00007454892
13340.76953 13192.12793 13228.30504 0.00007495819
13264.5498 13197.50358 13231.28223 0.00007538891
13216.83008 13203.21192 13234.27926 0.00007566111
13407.94043 13209.20619 13237.29566 0.00007458267
13364.76953 13215.43823 13240.33095 0.00007482359
13338.49023 13221.86155 13243.38465 0.000074971
13225.90039 13228.43201 13246.45627 0.00007560922
13389.82031 13235.10859 13249.54531 0.0000746836
13506.40039 13241.85389 13252.65129 0.00007403897
13161.91016 13248.6352 13255.77369 0.00007597681
13389.73047 13255.42308 13258.91203 0.0000746841
13384.90039 13262.19391 13262.06578 0.00007471105
13161.01953 13268.92679 13265.23445 0.00007598196
13369.16016 13275.60514 13268.41752 0.00007479901
13106.03027 13282.21585 13271.61446 0.00007630075
13259.01953 13288.74905 13274.82477 0.00007542036
13385.25 13295.19735 13278.04792 0.0000747091
13525.33008 13301.55663 13281.28337 0.00007393535
13460.59961 13307.82348 13284.53062 0.0000742909
13403.40039 13313.99779 13287.78911 0.00007460793
13244.71973 13320.07965 13291.05832 0.00007550179
13371.55957 13326.07072 13294.33772 0.00007478559
13296.30957 13331.97358 13297.62676 0.00007520884
13203.37012 13337.79147 13300.92489 0.00007573824
13338.70996 13343.52815 13304.23159 0.00007496977
13455.55957 13349.18819 13307.5463 0.00007431872
13136.62012 13354.77585 13310.86848 0.00007612308
13391.55957 13360.2957 13314.19757 0.0000746739
13173.15039 13365.75298 13317.53302 0.00007591199
13444.59961 13371.15241 13320.87429 0.00007437931
13138.05957 13376.49882 13324.22082 0.00007611474
13344.7002 13381.79703 13327.57205 0.00007493612
13079.11035 13387.05192 13330.92743 0.0000764578
13401.46973 13392.26804 13334.2864 0.00007461868
13167.71973 13397.45021 13337.6484 0.00007594329
13292.98047 13402.60269 13341.01287 0.00007522767
13301.62988 13407.73021 13344.37924 0.00007517876
13155.44043 13412.83692 13347.74697 0.00007601418
13313.88965 13417.92701 13351.11548 0.00007510953
13319.24023 13423.00458 13354.48421 0.00007507936
13382.7002 13428.07353 13357.85261 0.00007472334
13267.57031 13433.1378 13361.2201 0.00007537175
13213.62988 13438.20139 13364.58613 0.00007567943
13389.78027 13443.26769 13367.95013 0.00007468382
13419.16992 13448.34062 13371.31154 0.00007452026
13201.88965 13453.42352 13374.66979 0.00007574673
13169.71973 13458.51989 13378.02433 0.00007593176
13314.30957 13463.63303 13381.37459 0.00007510716
13256.37988 13468.76597 13384.72 0.00007543538
13197.42969 13473.92201 13388.06001 0.00007577233
13397.83984 13479.10402 13391.39406 0.0000746389
13337.20996 13484.31477 13394.72159 0.0000749782
13381.87012 13489.5566 13398.04204 0.00007472797
13159.23047 13494.83197 13401.35485 0.00007599229
13326.34961 13500.14287 13404.65947 0.0000750393
13202.07031 13505.49086 13407.95533 0.0000757457
13269.01953 13510.87702 13411.2419 0.00007536352
13614.58008 13516.3024 13414.51861 0.00007345067
13514.45996 13521.76693 13417.78492 0.00007399482
13396.08984 13527.27027 13421.04027 0.00007464865
13425.5 13532.81105 13424.28412 0.00007448512
13354.2002 13538.38725 13427.51593 0.00007488281
13474.42969 13543.99584 13430.73516 0.00007421464
13522.49023 13549.63265 13433.94125 0.00007395088
13407.15039 13555.29237 13437.13368 0.00007458707
13444.48047 13560.96825 13440.31191 0.00007437997
13301.33984 13566.6527 13443.4754 0.0000751804
13324.71973 13572.33661 13446.62363 0.00007504848
13608.08008 13578.00911 13449.75607 0.00007348575
13570.94043 13583.65848 13452.87218 0.00007368686
13816.28027 13589.27141 13455.97146 0.00007237838
13543.73047 13594.83389 13459.05337 0.0000738349
13728.54004 13600.33078 13462.11741 0.00007284096
13547.48047 13605.74632 13465.16306 0.00007381446
13624.41016 13611.06499 13468.18981 0.00007339767
13600.37988 13616.27124 13471.19715 0.00007352736
13408.98047 13621.35017 13474.18458 0.00007457689
13532.29004 13626.28798 13477.15161 0.00007389732
13727.05957 13631.07273 13480.09773 0.00007284881
13825.87988 13635.69471 13483.02246 0.00007232813
13789.40039 13640.14648 13485.9253 0.00007251947
13816.33984 13644.42365 13488.80577 0.00007237807
13839.83008 13648.5249 13491.6634 0.00007225522
13861.2002 13652.4522 13494.4977 0.00007214382
13734.2002 13656.21091 13497.30821 0.00007281094
13808.40039 13659.80942 13500.09445 0.00007241968
13887.24023 13663.25917 13502.85597 0.00007200855
13911.53027 13666.57462 13505.5923 0.00007188282
13618.66992 13669.7721 13508.303 0.00007342861
13764.73047 13672.87 13510.98761 0.00007264944
13681.00977 13675.88839 13513.64568 0.00007309402
13947.19043 13678.84776 13516.27678 0.00007169903
13806.12012 13681.76964 13518.88048 0.00007243165
13821.92969 13684.6755 13521.45633 0.0000723488
13723.51953 13687.58703 13524.00393 0.0000728676
13619.42969 13690.52473 13526.52284 0.00007342451
13647.66992 13693.50935 13529.01266 0.00007327258
13581.78027 13696.55998 13531.47297 0.00007362805
13935.83984 13699.69512 13533.90337 0.00007175743
13664.71973 13702.93166 13536.30346 0.00007318116
13847.01953 13706.28561 13538.67285 0.00007221771
13605.92969 13709.77207 13541.01115 0.00007349737
13549.2998 13713.40463 13543.31798 0.00007380455
13659.38965 13717.19579 13545.59297 0.00007320971
13704.4502 13721.15769 13547.83573 0.000072969
13607.62012 13725.30018 13550.04591 0.00007348824
13707.45996 13729.63249 13552.22315 0.00007295298
13908.42969 13734.16194 13554.36709 0.00007189884
13818 13738.89504 13556.47739 0.00007236937
13622.91992 13743.83612 13558.55371 0.0000734057
13902.99023 13748.98773 13560.59571 0.00007192697
13503.41016 13754.35006 13562.60307 0.00007405537
13794.25 13759.92183 13564.57545 0.00007249397
13955.87012 13765.69704 13566.51255 0.00007165444
13811.20996 13771.66661 13568.41406 0.00007240495
13767.44043 13777.81741 13570.27966 0.00007263514
13900.63965 13784.13107 13572.10907 0.00007193914
13885.84961 13790.58394 13573.90199 0.00007201576
13904.37988 13797.14596 13575.65814 0.00007191978
13856.28027 13803.78154 13577.37725 0.00007216944
13940.21973 13810.44624 13579.05903 0.00007173488
14030.67969 13817.09111 13580.70322 0.00007127238
13803.70996 13823.658 13582.30958 0.00007244429
13992.66016 13830.08314 13583.87784 0.00007146604
13893.00977 13836.297 13585.40776 0.00007197864
13757.23047 13842.22602 13586.89911 0.00007268905
13702.25 13847.79456 13588.35165 0.00007298071
13888.37988 13852.92669 13589.76516 0.00007200264
13691.19043 13857.54982 13591.13942 0.00007303967
14024.94043 13861.59691 13592.47422 0.00007130155
13939.34961 13865.00843 13593.76936 0.00007173936
13982.4502 13867.73633 13595.02464 0.00007151822
14056.26953 13869.74542 13596.23987 0.00007114263
14045.50977 13871.01551 13597.41487 0.00007119713
14070.79004 13871.54187 13598.54946 0.00007106921
14084.7998 13871.33571 13599.64348 0.00007099852
13803.37988 13870.42403 13600.69676 0.00007244602
14284.53027 13868.84621 13601.70916 0.0000700058
13985.2998 13866.65493 13602.68051 0.00007150365
14184.90039 13863.91226 13603.61068 0.0000704975
14029.29004 13860.68754 13604.49954 0.00007127944
14401.80957 13857.05445 13605.34696 0.00006943572
14129.90039 13853.08884 13606.15283 0.00007077191
13851.16992 13848.86628 13606.91702 0.00007219607
13839.20996 13844.45925 13607.63944 0.00007225846
14182.66016 13839.93713 13608.31999 0.00007050863
14236.67969 13835.36158 13608.95857 0.0000702411
14121.15039 13830.78971 13609.55511 0.00007081576
14073.04004 13826.27087 13610.10952 0.00007105785
13828.88965 13821.84706 13610.62174 0.00007231239
13849.19043 13817.55294 13611.09171 0.00007220639
13800.36035 13813.41639 13611.51937 0.00007246188
13784.46973 13809.45916 13611.90467 0.00007254541
13719.15039 13805.69664 13612.24757 0.00007289081
13941.23047 13802.13861 13612.54803 0.00007172968
13845.2998 13798.7917 13612.80604 0.00007222668
13856.99023 13795.65843 13613.02157 0.00007216574
13904.38965 13792.73827 13613.19461 0.00007191973
13691.63965 13790.02856 13613.32515 0.00007303727
13620.5 13787.52477 13613.4132 0.00007341874
13801.5498 13785.22176 13613.45875 0.00007245563
13840.0498 13783.11282 13613.46184 0.00007225408
13870.91992 13781.19097 13613.42247 0.00007209327
13850.36035 13779.44976 13613.34069 0.00007220029
14000.19043 13777.8825 13613.21652 0.0000714276
13751.79004 13776.48289 13613.05 0.00007271781
13812.16992 13775.24502 13612.8412 0.00007239992
13805.16016 13774.16352 13612.59016 0.00007243668
13774.71973 13773.23372 13612.29695 0.00007259676
13858 13772.45135 13611.96163 0.00007216048
13569.94043 13771.81305 13611.58429 0.00007369229
13704.96973 13771.31587 13611.16501 0.00007296623
13669.16992 13770.95768 13610.70388 0.00007315733
13678.09961 13770.73691 13610.201 0.00007310957
13776.42969 13770.65259 13609.65646 0.00007258775
13677.74023 13770.70434 13609.07038 0.00007311149
13677.15039 13770.89229 13608.44288 0.00007311465
13367.16992 13771.21763 13607.77408 0.00007481015
13420.88965 13771.68121 13607.0641 0.00007451071
13493.95996 13772.28518 13606.31309 0.00007410723
13794.16992 13773.03173 13605.52118 0.00007249439
13745.2998 13773.92364 13604.68853 0.00007275214
13570.84961 13774.964 13603.81528 0.00007368735
13522.03027 13776.15627 13602.9016 0.00007395339
13598.41992 13777.50402 13601.94766 0.00007353796
13549.26953 13779.01174 13600.95363 0.00007380472
13670.41016 13780.68281 13599.91969 0.00007315069
13608.75977 13782.52196 13598.84602 0.00007348208
13578.12012 13784.5329 13597.73281 0.0000736479
13769.08984 13786.71928 13596.58026 0.00007262644
13593.5498 13789.08433 13595.38858 0.0000735643
13352.24023 13791.63053 13594.15797 0.0000748938
13775.54004 13794.35943 13592.88864 0.00007259244
13514.16992 13797.27119 13591.58082 0.00007399641
13756.75 13800.36512 13590.23473 0.00007269159
13617.25977 13803.63732 13588.8506 0.00007343621
13559.08984 13807.08331 13587.42866 0.00007375126
13623.51953 13810.69437 13585.96917 0.00007340247
13588.23047 13814.45897 13584.47236 0.0000735931
13723.83008 13818.36199 13582.93849 0.00007286596
13975.30957 13822.38398 13581.36781 0.00007155477
13553.33008 13826.50079 13579.76059 0.00007378261
13831.05957 13830.68453 13578.1171 0.00007230104
13760.12988 13834.90039 13576.4376 0.00007267373
13937.88965 13839.11065 13574.72238 0.00007174687
13853.30957 13843.27108 13572.97172 0.00007218492
13864.55957 13847.33348 13571.1859 0.00007212634
13739.80957 13851.24608 13569.36522 0.00007278121
13985.46973 13854.95444 13567.50997 0.00007150278
13884.05957 13858.40263 13565.62046 0.00007202504
13897.65039 13861.53663 13563.69698 0.00007195461
14022.75 13864.30328 13561.73986 0.00007131269
14159.75 13866.65399 13559.74939 0.00007062272
13869.5498 13868.54741 13557.72591 0.00007210039
13867.59961 13869.94955 13555.66974 0.00007211053
13846.41992 13870.83655 13553.5812 0.00007222083
13880.0498 13871.19552 13551.46062 0.00007204585
13823.92969 13871.02505 13549.30834 0.00007233833
13833.5498 13870.33615 13547.12469 0.00007228803
13904.07031 13869.15158 13544.91003 0.00007192139
14056.5498 13867.50477 13542.66469 0.00007114121
13994.12012 13865.43781 13540.38902 0.00007145858
13785.57031 13863.00215 13538.08339 0.00007253962
13964.88965 13860.25523 13535.74814 0.00007160816
13823.15039 13857.25917 13533.38363 0.00007234241
13926.4502 13854.07869 13530.99024 0.00007180581
13783.99023 13850.77984 13528.56832 0.00007254793
13963.96973 13847.42861 13526.11825 0.00007161287
13890.17969 13844.08935 13523.6404 0.00007199331
13715.53027 13840.82183 13521.13515 0.00007291005
13718.2998 13837.68467 13518.60287 0.00007289533
14102.90039 13834.73166 13516.04395 0.0000709074
13649.98047 13832.01258 13513.45877 0.00007326018
13564.44043 13829.57283 13510.84772 0.00007372217
13958.5 13827.45402 13508.2112 0.00007164094
13849.26953 13825.69458 13505.54958 0.00007220597
13832.12988 13824.32875 13502.86327 0.00007229545
13818.40039 13823.38847 13500.15266 0.00007236728
13601.33008 13822.90211 13497.41816 0.00007352222
14034.37988 13822.89716 13494.66016 0.00007125359
13744.78027 13823.39917 13491.87907 0.00007275489
14020.91992 13824.43236 13489.0753 0.000071322
13823.59961 13826.01969 13486.24924 0.00007234006
13874.25 13828.18374 13483.40132 0.00007207597
13770.55957 13830.94815 13480.53194 0.00007261869
13977.16016 13834.33421 13477.64151 0.00007154529
13924.91992 13838.36325 13474.73046 0.0000718137
13934.66016 13843.05696 13471.79918 0.0000717635
13755.2998 13848.43641 13468.84811 0.00007269925
13964.08984 13854.52217 13465.87767 0.00007161226
14004.75 13861.33341 13462.88826 0.00007140434
13715.16016 13868.8883 13459.88031 0.00007291202
13911.94043 13877.20644 13456.85425 0.0000718807
14170.37012 13886.30185 13453.81049 0.00007056979
14091.32031 13896.18647 13450.74947 0.00007096567
13959.55957 13906.8704 13447.67159 0.0000716355
14064.80957 13918.35923 13444.5773 0.00007109943
13949.36035 13930.65408 13441.46702 0.00007168787
13939.71973 13943.74973 13438.34116 0.00007173745
13832.94043 13957.63442 13435.20017 0.00007229121
13924.51953 13972.29329 13432.04447 0.00007181576
14198.07031 13987.69596 13428.87448 0.00007043211
14126.49023 14003.80227 13425.69063 0.00007078899
14027.40039 14020.55913 13422.49336 0.00007128905
14042.51953 14037.89716 13419.28308 0.00007121229
14202.87988 14055.72755 13416.06024 0.00007040826
14037.37012 14073.93964 13412.82525 0.00007123842
14185.4502 14092.39627 13409.57854 0.00007049477
14294.12012 14110.93342 13406.32055 0.00006995884
14372.05957 14129.3626 13403.0517 0.00006957945
14343.00977 14147.45789 13399.77241 0.00006972037
14302.38965 14164.96589 13396.48312 0.00006991839
14324.95996 14181.60786 13393.18425 0.00006980822
14064.04004 14197.08348 13389.87622 0.00007110332
14257.19043 14211.07936 13386.55947 0.00007014005
14057.13965 14223.27675 13383.23441 0.00007113823
14152 14233.36868 13379.90146 0.00007066139
14169.94043 14241.06885 13376.56106 0.00007057193
14110.58984 14246.12251 13373.21362 0.00007086876
14129.29004 14248.32255 13369.85956 0.00007077496
14393.08008 14247.51874 13366.4993 0.00006947783
14095.80957 14243.62546 13363.13326 0.00007094307
14224.90039 14236.62502 13359.76185 0.00007029926
14293.49023 14226.56885 13356.3855 0.00006996192
14130.66016 14213.57729 13353.00461 0.0000707681
14376.32031 14197.82281 13349.61959 0.00006955883
14117.01953 14179.5353 13346.23087 0.00007083648
14284.15039 14158.98293 13342.83884 0.00007000766
14545.03027 14136.46274 13339.44392 0.00006875201
14202.08984 14112.28855 13336.0465 0.00007041217
14195.7002 14086.78012 13332.64701 0.00007044387
13983.82031 14060.25228 13329.24583 0.00007151122
14034.24023 14033.00706 13325.84336 0.0000712543
13949.33008 14005.32548 13322.44001 0.00007168803
13981.38965 13977.45693 13319.03618 0.00007152365
13765.75977 13949.6293 13315.63225 0.00007264401
13942.62012 13922.03676 13312.22861 0.00007172253
13752.17969 13894.84207 13308.82567 0.00007271575
13853.25 13868.17848 13305.42379 0.00007218523
13603.12988 13842.15087 13302.02338 0.00007351249
13712.86035 13816.83988 13298.62481 0.00007292425
13700.74023 13792.3017 13295.22847 0.00007298876
13816.70996 13768.56988 13291.83472 0.00007237613
13448.96973 13745.66746 13288.44395 0.00007435514
13557.92969 13723.6007 13285.05652 0.00007375757
13630.98047 13702.36459 13281.67282 0.00007336229
13326.37988 13681.94508 13278.2932 0.00007503913
13648.20996 13662.32112 13274.91802 0.00007326968
13398.26953 13643.46761 13271.54766 0.0000746365
13308.53027 13625.35315 13268.18247 0.00007513978
13288.33008 13607.94296 13264.8228 0.000075254
13649.75977 13591.20438 13261.46901 0.00007326136
13354.11035 13575.10188 13258.12144 0.00007488331
13578.57031 13559.60003 13254.78045 0.00007364546
13494.2002 13544.6638 13251.44638 0.00007410591
13508.42969 13530.25878 13248.11957 0.00007402785
13458.95996 13516.3523 13244.80035 0.00007429995
13403.25 13502.91295 13241.48906 0.00007460877
13467.54004 13489.91055 13238.18603 0.00007425261
13414.76953 13477.31631 13234.89158 0.0000745447
13275.90039 13465.10542 13231.60605 0.00007532446
13529.20996 13453.25451 13228.32976 0.00007391415
13499.17969 13441.74287 13225.06301 0.00007407858
13456.65039 13430.55272 13221.80613 0.0000743127
13220 13419.66935 13218.55942 0.00007564297
13365.01953 13409.081 13215.3232 0.00007482219
13505.59961 13398.77976 13212.09776 0.00007404336
13386.2998 13388.76029 13208.8834 0.00007470324
13164.05957 13379.0235 13205.68043 0.00007596441
13273.33008 13369.57322 13202.48913 0.00007533904
13250.28027 13360.41789 13199.3098 0.0000754701
13158.79004 13351.57056 13196.14272 0.00007599483
13366.95996 13343.04853 13192.98817 0.00007481133
13206.20996 13334.87426 13189.84643 0.00007572195
13277.88965 13327.07271 13186.71777 0.00007531317
13225.41016 13319.67269 13183.60247 0.00007561202
13536.15039 13312.7073 13180.50079 0.00007387625
13376.75 13306.21034 13177.41299 0.00007475657
13215.25977 13300.21668 13174.33934 0.0000756701
13505.46973 13294.76114 13171.28008 0.00007404407
13321.83008 13289.8761 13168.23548 0.00007506476
13392.04004 13285.59215 13165.20578 0.00007467122
13389.04004 13281.93522 13162.19121 0.00007468795
13374.99023 13278.92573 13159.19204 0.00007476641
13157.53027 13276.57894 13156.20847 0.00007600211
13448.33984 13274.90312 13153.24077 0.00007435862
13186.96973 13273.89986 13150.28913 0.00007583243
13265.5 13273.56417 13147.35381 0.00007538351
13255.2998 13273.88457 13144.435 0.00007544152
13211.83984 13274.84407 13141.53294 0.00007568969
13343.87012 13276.42178 13138.64783 0.00007494078
13493.23047 13278.59201 13135.77988 0.00007411124
13411.51953 13281.3259 13132.92929 0.00007456277
13288.0498 13284.59527 13130.09627 0.00007525559
13241.25977 13288.36967 13127.28101 0.00007552152
13286.08008 13292.61963 13124.48371 0.00007526674
13148.2998 13297.31691 13121.70455 0.00007605546
13112.11035 13302.43552 13118.94373 0.00007626537
13587.05957 13307.9517 13116.20141 0.00007359944
13187.03027 13313.84549 13113.47777 0.00007583208
13258.21973 13320.09728 13110.773 0.00007542491
13217.66016 13326.69362 13108.08725 0.00007565636
13495.99023 13333.62108 13105.42069 0.00007409608
13496.86035 13340.8691 13102.77349 0.00007409131
13297.17969 13348.42879 13100.1458 0.00007520392
13414.58984 13356.29254 13097.53777 0.0000745457
13406.15039 13364.45319 13094.94956 0.00007459263
13456.38965 13372.90445 13092.3813 0.00007431414
13514.92969 13381.63632 13089.83314 0.00007399225
13480.58008 13390.64099 13087.30522 0.00007418078
13597.51953 13399.90513 13084.79767 0.00007354283
13512.5 13409.41336 13082.31061 0.00007400555
13246.70996 13419.1461 13079.84418 0.00007549044
13448.70996 13429.07871 13077.3985 0.00007435657
13482.16016 13439.18259 13074.97369 0.00007417209
13564.12012 13449.42299 13072.56985 0.00007372391
13630.87988 13459.75834 13070.1871 0.00007336284
13529.5 13470.13946 13067.82555 0.00007391256
13544.73047 13480.51474 13065.4853 0.00007382945
13583.17969 13490.82254 13063.16645 0.00007362046
13702.61035 13500.99671 13060.86909 0.0000729788
13674.20996 13510.96598 13058.59332 0.00007313037
13642.20996 13520.6548 13056.33922 0.00007330191
13554.53027 13529.98558 13054.10687 0.00007377607
13728.16992 13538.88023 13051.89637 0.00007284292
13935.25977 13547.25852 13049.70779 0.00007176041
13566.80957 13555.04534 13047.54119 0.0000737093
13845.04004 13562.16739 13045.39665 0.00007222803
14033.91992 13568.55773 13043.27424 0.00007125593
13865.98047 13574.15638 13041.17401 0.00007211895
13833.49023 13578.91133 13039.09604 0.00007228834
13469.92969 13582.77938 13037.04037 0.00007423944
13457.01953 13585.72857 13035.00705 0.00007431066
13856.12012 13587.73414 13032.99614 0.00007217028
13814.67969 13588.77981 13031.00769 0.00007238677
13657.48047 13588.85895 13029.04172 0.00007321995
13872.98047 13587.97194 13027.09829 0.00007208256
13719.65039 13586.12565 13025.17742 0.00007288815
13919.75 13583.33276 13023.27916 0.00007184037
13689.69043 13579.61007 13021.40353 0.00007304767
13516.15039 13574.98022 13019.55055 0.00007398556
13641.95996 13569.46915 13017.72025 0.00007330325
13549.16992 13563.1077 13015.91265 0.00007380526
13716.50977 13555.92779 13014.12776 0.00007290484
13725.30957 13547.96926 13012.3656 0.0000728581
13425.91016 13539.27568 13010.62618 0.00007448285
13682.04004 13529.89573 13008.9095 0.00007308852
13509.44043 13519.88393 13007.21558 0.00007402231
13643.59961 13509.29831 13005.54441 0.00007329444
13469.78027 13498.203 13003.89598 0.00007424026
13487.9502 13486.66678 13002.27031 0.00007414025
13193.78027 13474.75862 13000.66737 0.00007579329
13465.5498 13462.5527 12999.08716 0.00007426358
13486.44043 13450.12311 12997.52967 0.00007414855
13086.13965 13437.54367 12995.99488 0.00007641673
13448.92969 13424.88697 12994.48277 0.00007435536
13222.09961 13412.2219 12992.99332 0.00007563095
13150.32031 13399.61293 12991.52652 0.00007604378
13253.57031 13387.12202 12990.08232 0.00007545137
13413.20996 13374.80251 12988.66071 0.00007455337
13527.86035 13362.70418 12987.26165 0.00007392152
13597.49023 13350.86973 12985.88511 0.00007354298
13306.33984 13339.33545 12984.53106 0.00007515215
13271.66992 13328.13204 12983.19945 0.00007534847
13485.82031 13317.28337 12981.89025 0.00007415196
13346.20996 13306.80795 12980.6034 0.00007492764
13295.95996 13296.71946 12979.33888 0.00007521082
13202.20996 13287.02824 12978.09662 0.00007574489
12993.00977 13277.73855 12976.87658 0.00007696446
13280.34961 13268.85324 12975.67871 0.00007529922
13306.75 13260.37165 12974.50295 0.00007514983
13106.50977 13252.29086 12973.34925 0.00007629796
13231.25977 13244.60663 12972.21755 0.00007557859
13386.15039 13237.31282 12971.10779 0.00007470408
13140.16992 13230.40133 12970.0199 0.00007610252
13245.66992 13223.86529 12968.95383 0.00007549637
13236.4502 13217.69565 12967.9095 0.00007554896
13179.91992 13211.88426 12966.88686 0.000075873
13201.75977 13206.42235 12965.88582 0.00007574748
13107.40039 13201.30133 12964.90632 0.00007629278
13049.41016 13196.51287 12963.94829 0.00007663182
13269.16992 13192.04863 12963.01164 0.00007536266
13057.4502 13187.89982 12962.09631 0.00007658463
13128.61035 13184.05908 12961.20222 0.00007616952
13056.62988 13180.51826 12960.32928 0.00007658944
13261.33008 13177.26972 12959.47742 0.00007540722
13118.26953 13174.30574 12958.64655 0.00007622957
13234.69043 13171.61815 12957.83658 0.000075559
13008.01953 13169.19885 12957.04744 0.00007687565
13085.37012 13167.03857 12956.27904 0.00007642122
12923.41016 13165.12739 12955.53128 0.00007737896
13308.67969 13163.45402 12954.80408 0.00007513893
13171.66992 13162.00677 12954.09734 0.00007592052
13214.96973 13160.77085 12953.41098 0.00007567176
13172.76953 13159.73059 12952.7449 0.00007591418
13216.21973 13158.86764 12952.09901 0.0000756646
13087.65039 13158.16164 12951.4732 0.00007640791
13021.16016 13157.58962 12950.86739 0.00007679807
13184.91992 13157.12684 12950.28148 0.00007584422
13183.49023 13156.74605 12949.71536 0.00007585245
13050.16016 13156.41922 12949.16894 0.00007662741
13188.95996 13156.11739 12948.64211 0.00007582099
13249.30957 13155.81219 12948.13478 0.00007547563
13169.7002 13155.47602 12947.64684 0.00007593187
13115.13965 13155.0841 12947.17818 0.00007624776
13220.37012 13154.61471 12946.72871 0.00007564085
13274.83008 13154.05054 12946.29832 0.00007533053
13082.00977 13153.37924 12945.8869 0.00007644085
13111.95996 13152.59427 12945.49434 0.00007626625
12950.38965 13151.69414 12945.12054 0.00007721775
13171.38965 13150.68357 12944.76538 0.00007592213
12941.71973 13149.57223 12944.42877 0.00007726948
13178.7002 13148.37416 12944.11059 0.00007588002
12980.07031 13147.10791 12943.81073 0.00007704119
12692.90039 13145.79428 12943.52908 0.0000787842
13325.29004 13144.45643 12943.26552 0.00007504527
13255.63965 13143.11894 12943.01996 0.00007543959
13027.54004 13141.80603 12942.79227 0.00007676046
13070.4502 13140.54212 12942.58234 0.00007650846
13164.51953 13139.35017 12942.39006 0.00007596175
13210.38965 13138.25153 12942.21532 0.00007569799
13151.94043 13137.26577 12942.058 0.00007603441
13201.66992 13136.41 12941.91799 0.00007574799
13008.42969 13135.69888 12941.79518 0.00007687323
12901.32031 13135.14445 12941.68944 0.00007751145
12993.2998 13134.75693 12941.60067 0.00007696274
12898.32031 13134.54333 12941.52874 0.00007752947
13300.37012 13134.50924 12941.47355 0.00007518588
13002.12012 13134.65798 12941.43498 0.00007691053
12936.08008 13134.9911 12941.41291 0.00007730317
13045.78027 13135.5087 12941.40723 0.00007665314
12784.92969 13136.20885 12941.41782 0.00007821709
12932.83008 13137.08809 12941.44456 0.0000773226
13030.84961 13138.14183 12941.48734 0.00007674097
13116.75 13139.36321 12941.54605 0.0000762384
13287.5 13140.74492 12941.62055 0.0000752587
13151.29004 13142.27739 12941.71075 0.00007603817
12928.65039 13143.94949 12941.81652 0.00007734759
13149.20996 13145.7498 12941.93774 0.0000760502
13276.7998 13147.66423 12942.0743 0.00007531936
13246.33984 13149.6776 12942.22609 0.00007549255
13117.88965 13151.77378 12942.39298 0.00007623177
13333.66016 13153.93509 12942.57487 0.00007499816
13158.12012 13156.1436 12942.77163 0.0000759987
13016.94043 13158.38044 12942.98314 0.00007682297
12957.08984 13160.62659 12943.2093 0.00007717782
12964.71973 13162.86423 12943.44998 0.0000771324
13183.16016 13165.07554 12943.70508 0.00007585435
13315.83984 13167.24437 12943.97446 0.00007509853
13156.08008 13169.35632 12944.25803 0.00007601048
12966.26953 13171.39978 12944.55566 0.00007712318
13096.41992 13173.3654 12944.86724 0.00007635675
13295.98047 13175.24748 12945.19266 0.0000752107
13077.91016 13177.04328 12945.53179 0.00007646482
13156.87012 13178.75436 12945.88453 0.00007600592
13424.29004 13180.38483 12946.25075 0.00007449184
13029.88965 13181.94295 12946.63036 0.00007674662
13276.59961 13183.43963 12947.02322 0.00007532049
13323.88965 13184.88917 12947.42923 0.00007505316
13024.88965 13186.30786 12947.84828 0.00007677608
13258.96973 13187.71433 12948.28025 0.00007542064
13110.16016 13189.12864 12948.72503 0.00007627672
13090 13190.57189 12949.18251 0.00007639419
12989.63965 13192.06641 12949.65257 0.00007698443
13338.98047 13193.63425 12950.1351 0.00007496825
13126.70996 13195.2974 12950.62999 0.00007618055
13281.41016 13197.07793 12951.13713 0.00007529321
13218.91016 13198.99708 12951.6564 0.0000756492
13371.83008 13201.07501 12952.1877 0.00007478408
13377.00977 13203.33141 12952.73092 0.00007475512
13051.51953 13205.78476 12953.28594 0.00007661943
13061.61035 13208.45324 12953.85265 0.00007656024
13201.84961 13211.35377 12954.43095 0.00007574696
13462.2002 13214.50265 12955.02073 0.00007428206
13050.92969 13217.91529 12955.62187 0.00007662289
13512.55957 13221.60729 12956.23426 0.00007400522
13252.67969 13225.59343 12956.8578 0.00007545644
13138.2002 13229.88826 12957.49239 0.00007611393
13224.33984 13234.50681 12958.1379 0.00007561814
13326.46973 13239.46279 12958.79423 0.00007503863
13332.32031 13244.77328 12959.46128 0.0000750057
13386.69043 13250.45331 12960.13894 0.00007470106
13542.23047 13256.51886 12960.82709 0.00007384308
13151.95996 13262.9877 12961.52564 0.00007603429
13395.34961 13269.87749 12962.23448 0.00007465277
13384.19043 13277.20711 12962.95349 0.00007471502
13179.69043 13284.99665 12963.68258 0.00007587432
13200.09961 13293.26641 12964.42163 0.000075757
13337.13965 13302.04043 12965.17055 0.0000749786
13548.17969 13311.34195 12965.92922 0.00007381065
13306.78027 13321.19547 12966.69754 0.00007514966
13723.15039 13331.62807 12967.4754 0.00007286957
13618.11035 13342.66711 12968.26271 0.00007343163
13411.21973 13354.34121 12969.05935 0.00007456443
13383.75977 13366.68032 12969.86522 0.00007471742
13238.62012 13379.71357 12970.68022 0.00007553657
13473.50977 13393.47534 12971.50423 0.00007421971
13414.54004 13407.99605 12972.33717 0.00007454598
13566.62012 13423.3073 12973.17892 0.00007371033
13373.16016 13439.43895 12974.02937 0.00007477664
13422.21973 13456.42178 12974.88843 0.00007450333
13448.45996 13474.28199 12975.756 0.00007435796
13459.66016 13493.04296 12976.63196 0.00007429608
13945.5498 13512.72346 12977.51621 0.00007170746
13681.86035 13533.33273 12978.40866 0.00007308948
13631.65039 13554.88057 12979.30919 0.00007335869
13628.34961 13577.35832 12980.21771 0.00007337646
13542.45996 13600.74603 12981.13411 0.00007384183
13567.17969 13625.01193 12982.05828 0.00007370729
13749.32031 13650.10338 12982.99013 0.00007273087
13838.33008 13675.94794 12983.92955 0.00007226305
13776.41016 13702.45005 12984.87644 0.00007258785
13723.57031 13729.48509 12985.83069 0.00007286734
13756.57031 13756.90993 12986.79221 0.00007269254
13798.88965 13784.54448 12987.76088 0.0000724696
13865.57031 13812.18065 12988.73661 0.00007212109
13734.82031 13839.5874 12989.71928 0.00007280765
13607.83008 13866.50535 12990.70881 0.0000734871
13863.04004 13892.65697 12991.70508 0.00007213425
14081.83984 13917.75285 12992.70799 0.00007101345
13930.41016 13941.49777 12993.71744 0.0000717854
13837.86035 13963.60779 12994.73332 0.00007226551
14092.90039 13983.81243 12995.75552 0.00007095771
13951.33984 14001.87014 12996.78396 0.0000716777
13974.70996 14017.57728 12997.81851 0.00007155784
13910.9502 14030.78228 12998.85908 0.00007188582
13943.16992 14041.38451 12999.90555 0.0000717197
13790.5498 14049.34415 13000.95784 0.00007251343
14249.79004 14054.68224 13002.01583 0.00007017647
13854.83008 14057.48058 13003.07941 0.00007217699
14150.05957 14057.87455 13004.14848 0.00007067108
14097.30957 14056.0524 13005.22293 0.00007093552
13994.83984 14052.24363 13006.30267 0.00007145491
13746.75977 14046.71173 13007.38757 0.00007274442
13859.25977 14039.74511 13008.47754 0.00007215393
14059.30957 14031.64745 13009.57247 0.00007112725
13880.2998 14022.72869 13010.67225 0.00007204455
14158.4502 14013.29937 13011.77677 0.0000706292
13926.98047 14003.64937 13012.88593 0.00007180307
14101.73047 13994.06613 13013.99962 0.00007091328
13998.44043 13984.81087 13015.11772 0.00007143653
13821.7002 13976.11575 13016.24014 0.00007235
13892.53027 13968.19005 13017.36675 0.00007198113
13615.05957 13961.21292 13018.49746 0.00007344808
14042.17969 13955.33412 13019.63215 0.00007121402
13930.94043 13950.67703 13020.77071 0.00007178266
14109.40039 13947.32613 13021.91303 0.00007087473
13785.40039 13945.35237 13023.059 0.00007254051
13978.66016 13944.79336 13024.2085 0.00007153761
14022.92969 13945.66172 13025.36143 0.00007131177
14116.54004 13947.94148 13026.51768 0.00007083889
13981.33008 13951.59655 13027.67712 0.00007152395
13961.99023 13956.56483 13028.83965 0.00007162303
14057.67969 13962.7596 13030.00515 0.00007113549
13995.7002 13970.06883 13031.17351 0.00007145052
14163.24023 13978.35794 13032.34461 0.00007060531
13919.61035 13987.46854 13033.51834 0.00007184109
14014.33984 13997.21707 13034.69458 0.00007135548
13806.95996 14007.39512 13035.87322 0.00007242724
14267.01953 14017.77733 13037.05414 0.00007009172
14304.08984 14028.11926 13038.23722 0.00006991008
14039.71973 14038.16303 13039.42234 0.00007122649
14020.11035 14047.64297 13040.60939 0.00007132611
14289.76953 14056.28588 13041.79824 0.00006998013
14354.54004 14063.83043 13042.98879 0.00006966437
14204.69043 14070.02489 13044.1809 0.00007039928
13889.2002 14074.63317 13045.37445 0.00007199839
14073.73047 14077.44931 13046.56934 0.00007105437
14146.36035 14078.30025 13047.76543 0.00007068956
14013.95996 14077.05209 13048.9626 0.00007135742
14140.92969 14073.6146 13050.16073 0.00007071671
13994.40039 14067.94177 13051.3597 0.00007145715
14090.08984 14060.03202 13052.55939 0.00007097187
14229.20996 14049.93208 13053.75966 0.00007027797
14171.05957 14037.72761 13054.9604 0.00007056635
13962.61035 14023.54074 13056.16148 0.00007161985
14174.5 14007.52686 13057.36277 0.00007054923
14236.08008 13989.86651 13058.56415 0.00007024406
14196.37012 13970.75967 13059.7655 0.00007044054
13887.13965 13950.41999 13060.96668 0.00007200907
13629.74023 13929.06143 13062.16756 0.00007336897
13853.96973 13906.90289 13063.36802 0.00007218148
13730.12988 13884.15817 13064.56794 0.00007283252
13817.30957 13861.02937 13065.76717 0.00007237299
13839.49023 13837.7062 13066.96559 0.000072257
13650.16016 13814.36174 13068.16307 0.00007325921
13849.94043 13791.1511 13069.35949 0.00007220248
13664.91992 13768.2109 13070.5547 0.00007318008
13689.5498 13745.66011 13071.74858 0.00007304842
13796.58984 13723.59355 13072.94099 0.00007248168
13858.83008 13702.09177 13074.1318 0.00007215616
13758.38965 13681.21955 13075.32089 0.00007268292
13595.21973 13661.02582 13076.50811 0.00007355527
13316.9502 13641.54568 13077.69333 0.00007509227
13664.4502 13622.80242 13078.87641 0.0000731826
13779.9502 13604.80922 13080.05724 0.0000725692
13476.80957 13587.57157 13081.23565 0.00007420154
13456.11035 13571.08416 13082.41154 0.00007431568
13448.75977 13555.33737 13083.58474 0.0000743563
13266.2998 13540.31878 13084.75514 0.00007537897
13418.12012 13526.01031 13085.92259 0.00007452609
13364.12988 13512.39162 13087.08696 0.00007482717
13213.71973 13499.43996 13088.24811 0.00007567892
13322.54004 13487.13138 13089.4059 0.00007506076
13245.41992 13475.44163 13090.5602 0.0000754978
13296.05957 13464.34353 13091.71086 0.00007521025
13403.30957 13453.81088 13092.85775 0.00007460844
13510.41992 13443.81902 13094.00074 0.00007401694
13455.62012 13434.34248 13095.13967 0.00007431839
13371.23047 13425.35666 13096.27442 0.00007478743
13461.83984 13416.83758 13097.40484 0.00007428405
13602.87988 13408.76202 13098.5308 0.00007351384
13461.16016 13401.10774 13099.65215 0.0000742878
13262.25 13393.85388 13100.76876 0.00007540199
13297.19043 13386.97907 13101.88049 0.00007520386
13259.17969 13380.46354 13102.98719 0.00007541945
13564.53027 13374.2893 13104.08874 0.00007372168
13275.95996 13368.43887 13105.18498 0.00007532412
13459.87012 13362.8959 13106.27578 0.00007429492
13315.87988 13357.6449 13107.361 0.0000750983
13194.7998 13352.67157 13108.4405 0.00007578743
13300.08008 13347.96279 13109.51414 0.00007518752
13426.33008 13343.50571 13110.58178 0.00007448052
13293.37988 13339.28871 13111.64329 0.00007522541
13449.51953 13335.30207 13112.69852 0.0000743521
13225.94043 13331.53658 13113.74733 0.00007560899
13254.15039 13327.98425 13114.78959 0.00007544806
13407.98047 13324.63833 13115.82516 0.00007458245
13367.41016 13321.49318 13116.85389 0.00007480881
13489.44043 13318.54446 13117.87566 0.00007413206
13388.23047 13315.78829 13118.89032 0.00007469247
13459.91016 13313.22223 13119.89773 0.0000742947
13161.80957 13310.84528 13120.89777 0.00007597739
13221.95996 13308.65694 13121.89029 0.00007563175
13429.29004 13306.65757 13122.87515 0.0000744641
13247.66016 13304.84823 13123.85223 0.00007548503
13296.28027 13303.23026 13124.82138 0.000075209
13352.33008 13301.80514 13125.78247 0.0000748933
13441.73047 13300.57454 13126.73538 0.00007439518
13359.26953 13299.53951 13127.67995 0.00007485439
13369.44043 13298.70077 13128.61607 0.00007479745
13348.83008 13298.05871 13129.54359 0.00007491293
13399.44043 13297.61286 13130.46239 0.00007462998
13520.44043 13297.36241 13131.37234 0.00007396209
13341.88965 13297.30543 13132.2733 0.0000749519
13228.75977 13297.43952 13133.16515 0.00007559288
13386.13965 13297.76193 13134.04775 0.00007470414
13395.42969 13298.26904 13134.92099 0.00007465233
13256.33984 13298.95717 13135.78473 0.0000754356
13440.84961 13299.82258 13136.63885 0.00007440006
13283.20996 13300.86136 13137.48321 0.00007528301
13426.0498 13302.06977 13138.31771 0.00007448207
13422.08984 13303.4445 13139.14221 0.00007450405
13247.28027 13304.98226 13139.95659 0.00007548719
13612.12988 13306.68051 13140.76073 0.00007346389
13387.91016 13308.5364 13141.55451 0.00007469426
13558.70996 13310.54847 13142.33782 0.00007375333
13238.65039 13312.71509 13143.11052 0.0000755364
13311.55957 13315.03488 13143.87252 0.00007512268
13252.34961 13317.50676 13144.62369 0.00007545832
13250.38965 13320.12997 13145.36392 0.00007546948
13573.19043 13322.90312 13146.09309 0.00007367465
13296.12012 13325.82463 13146.8111 0.00007520991
13285.86035 13328.89226 13147.51783 0.00007526799
13319.70996 13332.10322 13148.21318 0.00007507671
13571.13965 13335.45309 13148.89703 0.00007368578
13506.78027 13338.93623 13149.56929 0.00007403689
13348.87012 13342.54495 13150.22985 0.00007491271
13399.66016 13346.27051 13150.8786 0.00007462876
13566.33984 13350.101 13151.51545 0.00007371185
13385.24023 13354.02219 13152.1403 0.00007470916
13554.45996 13358.01757 13152.75304 0.00007377645
13308.54004 13362.06804 13153.35358 0.00007513972
13281.61035 13366.15134 13153.94183 0.00007529207
13306.40039 13370.24308 13154.5177 0.0000751518
13606.25 13374.31634 13155.08109 0.00007349564
13321.09961 13378.34242 13155.63191 0.00007506888
13307.91992 13382.29178 13156.17008 0.00007514322
13464.5 13386.13308 13156.69551 0.00007426938
13281.57031 13389.83546 13157.20813 0.0000752923
13416.45996 13393.36815 13157.70783 0.00007453531
13372.76953 13396.70147 13158.19456 0.00007477883
13344.08008 13399.80745 13158.66823 0.0000749396
13294.20996 13402.66 13159.12876 0.00007522072
13251.9502 13405.23573 13159.57608 0.00007546059
13342.99023 13407.51442 13160.01012 0.00007494572
13256.38965 13409.47778 13160.43082 0.00007543532
13270.17969 13411.11104 13160.8381 0.00007535693
13374.37012 13412.40195 13161.23189 0.00007476988
13500.11035 13413.34081 13161.61215 0.00007407347
13282.62988 13413.92094 13161.9788 0.0000752863
13452.2998 13414.13821 13162.33179 0.00007433673
13534.78027 13413.99072 13162.67106 0.00007388373
13440.09961 13413.48009 13162.99656 0.00007440421
13448.00977 13412.60957 13163.30824 0.00007436045
13488.34961 13411.38543 13163.60606 0.00007413805
13525.5498 13409.81671 13163.88995 0.00007393415
13476.58008 13407.91424 13164.15989 0.0000742028
13457.62988 13405.69245 13164.41583 0.00007430729
13233.71973 13403.16795 13164.65772 0.00007556454
13482.87988 13400.35958 13164.88555 0.00007416813
13533.32031 13397.28876 13165.09926 0.0000738917
13672.87988 13393.97787 13165.29884 0.00007313748
13277.19043 13390.45159 13165.48424 0.00007531714
13390.5 13386.73511 13165.65546 0.00007467981
13312.87012 13382.85509 13165.81245 0.00007511528
13550.45996 13378.83749 13165.95521 0.00007379823
13367.99023 13374.7091 13166.08372 0.00007480556
13412.07031 13370.49598 13166.19796 0.0000745597
13168.4502 13366.22344 13166.29791 0.00007593908
13400.25977 13361.91486 13166.38358 0.00007462542
13174.36035 13357.59313 13166.45494 0.00007590501
13150.83984 13353.27882 13166.51201 0.00007604077
13264.7998 13348.99099 13166.55477 0.00007538749
13210.30957 13344.74626 13166.58323 0.00007569845
13266.9502 13340.55959 13166.5974 0.00007537527
13284.57031 13336.44381 13166.59728 0.0000752753
13085.62012 13332.41019 13166.58288 0.00007641976
13298.42969 13328.46668 13166.55421 0.00007519685
13093.42969 13324.62089 13166.5113 0.00007637418
13326.70996 13320.87839 13166.45416 0.00007503727
13566 13317.24318 13166.38281 0.0000737137
13326.44043 13313.71769 13166.29727 0.00007503879
13219.05957 13310.30355 13166.19759 0.00007564835
13249.61035 13307.00128 13166.08378 0.00007547392
13302.08008 13303.81063 13165.95588 0.00007517621
13175.30957 13300.73044 13165.81393 0.00007589954
13312.69043 13297.7587 13165.65797 0.0000751163
13049.37012 13294.89351 13165.48803 0.00007663205
13091.79004 13292.13219 13165.30418 0.00007638375
13405.83984 13289.47206 13165.10644 0.00007459436
13021.34961 13286.90983 13164.89489 0.00007679696
13116.12988 13284.44239 13164.66957 0.000076242
13280.53027 13282.0666 13164.43054 0.0000752982
13311.05957 13279.77906 13164.17786 0.0000751255
12882.17969 13277.57623 13163.91159 0.00007762661
13184.01953 13275.45501 13163.63181 0.0000758494
13105.32031 13273.41225 13163.33858 0.00007630489
13374.00977 13271.44477 13163.03197 0.00007477189
13110.25 13269.54952 13162.71207 0.0000762762
12936.67969 13267.72365 13162.37895 0.00007729959
13220.20996 13265.96445 13162.03269 0.00007564176
13228.84961 13264.26947 13161.67337 0.00007559236
13215.38965 13262.63591 13161.3011 0.00007566935
13297.33008 13261.06161 13160.91595 0.00007520307
13061.90039 13259.54449 13160.51802 0.00007655854
13417.65039 13258.08254 13160.10741 0.0000745287
13307.30957 13256.67383 13159.68422 0.00007514667
13144.96973 13255.31671 13159.24855 0.00007607473
13356.84961 13254.00964 13158.80051 0.00007486795
13270.00977 13252.75134 13158.3402 0.00007535789
13294.13965 13251.54053 13157.86774 0.00007522111
13398.13965 13250.37601 13157.38324 0.00007463723
13238.73047 13249.25694 13156.88683 0.00007553594
13281.80957 13248.18247 13156.37861 0.00007529095
13215.62012 13247.15201 13155.85872 0.00007566803
13399.70996 13246.1649 13155.32728 0.00007462848
13116.63965 13245.22075 13154.78442 0.00007623904
13473.2002 13244.31938 13154.23026 0.00007422142
13311.83984 13243.46058 13153.66495 0.0000751211
13407.41992 13242.64417 13153.08863 0.00007458557
13070.12988 13241.87024 13152.50143 0.00007651033
13306.08984 13241.13891 13151.90349 0.00007515356
13229.13965 13240.45032 13151.29496 0.00007559071
13372.46973 13239.80466 13150.67599 0.0000747805
13235.46973 13239.20214 13150.04672 0.00007555455
13137.04004 13238.64315 13149.40732 0.00007612065
13384.42969 13238.1279 13148.75794 0.00007471368
13085.24023 13237.65643 13148.09873 0.00007642198
13104.79004 13237.22882 13147.42986 0.00007630798
13098.57031 13236.84501 13146.75149 0.00007634421
13364.28027 13236.50467 13146.06379 0.00007482633
13341.29004 13236.20711 13145.36692 0.00007495527
13113.76953 13235.95139 13144.66105 0.00007625572
13337.5 13235.73597 13143.94636 0.00007497657
13431.33984 13235.5591 13143.22303 0.00007445274
13213.01953 13235.4181 13142.49122 0.00007568293
13250.09961 13235.30957 13141.75112 0.00007547113
13232.41016 13235.22932 13141.00291 0.00007557202
13141.37988 13235.17227 13140.24678 0.00007609551
13113.53027 13235.13236 13139.48291 0.00007625712
13363.88965 13235.10222 13138.71149 0.00007482851
13467.50977 13235.07367 13137.93271 0.00007425278
13112.55957 13235.03762 13137.14676 0.00007626276
13189.28027 13234.98376 13136.35384 0.00007581915
13334.87988 13234.90103 13135.55414 0.0000749913
13526.69043 13234.77783 13134.74786 0.00007392791
13383.41992 13234.60235 13133.9352 0.00007471932
13049.90039 13234.36284 13133.11636 0.00007662894
13161.59961 13234.04792 13132.29155 0.00007597861
13460.28027 13233.64741 13131.46096 0.00007429266
13186.55957 13233.15249 13130.62481 0.00007583479
13380.49023 13232.55607 13129.78331 0.00007473568
13537.12988 13231.85344 13128.93666 0.0000738709
13305.9502 13231.04235 13128.08507 0.00007515435
13368.5 13230.12342 13127.22876 0.00007480271
13306.17969 13229.1001 13126.36794 0.00007515305
13511.61035 13227.97873 13125.50283 0.00007401042
13204.88965 13226.7683 13124.63364 0.00007572952
13495.08984 13225.4805 13123.76059 0.00007410103
13398.37012 13224.12881 13122.8839 0.00007463594
13375.00977 13222.72895 13122.00379 0.0000747663
13186.65039 13221.29762 13121.12048 0.00007583427
13458.75977 13219.85236 13120.23419 0.00007430105
13362.16992 13218.411 13119.34515 0.00007483814
13290.75977 13216.99106 13118.45357 0.00007524024
13153.17969 13215.60928 13117.55969 0.00007602724
13051.75977 13214.28132 13116.66372 0.00007661802
13316.9502 13213.02092 13115.7659 0.00007509227
13397.70996 13211.84074 13114.86645 0.00007463962
13183.62012 13210.75111 13113.9656 0.0000758517
13232.12012 13209.76054 13113.06358 0.00007557368
13314.75 13208.87573 13112.16061 0.00007510468
13361.01953 13208.10146 13111.25692 0.00007484459
13410.34961 13207.44124 13110.35274 0.00007456927
12928.71973 13206.89686 13109.4483 0.00007734718
13179.66992 13206.4689 13108.54384 0.00007587443
13458.45996 13206.15713 13107.63957 0.00007430271
13344.17969 13205.96097 13106.73573 0.00007493904
13013.03027 13205.87894 13105.83255 0.00007684605
13187.61035 13205.90953 13104.93026 0.00007582875
13293.59961 13206.05109 13104.02909 0.00007522417
12970.59961 13206.30223 13103.12927 0.00007709744
13095.25977 13206.66173 13102.23102 0.00007636351
13006.69043 13207.12878 13101.33458 0.00007688351
13277.45996 13207.70255 13100.44017 0.00007531561
13158.7998 13208.38356 13099.54802 0.00007599477
13215.69043 13209.17198 13098.65837 0.00007566763
13142.13965 13210.06864 13097.77143 0.00007609111
13167.63965 13211.07483 13096.88743 0.00007594376
13319.30957 13212.19188 13096.0066 0.00007507897
13228.57031 13213.42187 13095.12917 0.00007559396
13224.51953 13214.76651 13094.25535 0.00007561711
13097.59961 13216.22733 13093.38538 0.00007634987
13118.20996 13217.80681 13092.51947 0.00007622991
13092.21973 13219.50621 13091.65784 0.00007638124
13055.04004 13221.32676 13090.80072 0.00007659877
13145.25 13223.26919 13089.94833 0.00007607311
13167.08984 13225.3333 13089.10087 0.00007594693
13250.15039 13227.51849 13088.25858 0.00007547084
13466.09961 13229.82261 13087.42166 0.00007426055
13201.62988 13232.24222 13086.59033 0.00007574822
13374.65039 13234.77204 13085.7648 0.00007476831
13373.80957 13237.40618 13084.94528 0.00007477301
13307.42969 13240.13546 13084.13199 0.00007514599
13358.61035 13242.94896 13083.32512 0.00007485809
13139.13965 13245.83303 13082.52489 0.00007610848
13013.25 13248.77197 13081.73151 0.00007684475
13037.26953 13251.7468 13080.94516 0.00007670318
13281.50977 13254.73606 13080.16606 0.00007529265
13031.05957 13257.71505 13079.3944 0.00007673973
13291.70996 13260.65794 13078.63038 0.00007523486
13349.16992 13263.5354 13077.87419 0.00007491102
13258.49023 13266.31668 13077.12604 0.00007542337
13181.59961 13268.97015 13076.38609 0.00007586333
13343.08008 13271.46311 13075.65456 0.00007494521
13143.62988 13273.76412 13074.93161 0.00007608248
13253.5 13275.84215 13074.21744 0.00007545177
13094.2998 13277.66842 13073.51223 0.00007636911
13217.69043 13279.21762 13072.81615 0.00007565618
12973.28027 13280.46785 13072.12938 0.00007708151
13161.55957 13281.40183 13071.4521 0.00007597884
13387.15039 13282.00763 13070.78447 0.0000746985
13190.03027 13282.27853 13070.12666 0.00007581484
13393.65039 13282.21394 13069.47885 0.00007466224
13204.78027 13281.81847 13068.84118 0.00007573015
13233.62988 13281.10237 13068.21383 0.00007556506
13183.21973 13280.08122 13067.59695 0.000075854
13287.01953 13278.77426 13066.99069 0.00007526142
13282.90039 13277.20544 13066.3952 0.00007528476
13273.83984 13275.40189 13065.81064 0.00007533615
13276.65039 13273.39306 13065.23715 0.0000753202
13170.82031 13271.20991 13064.67486 0.00007592542
13224.90039 13268.88454 13064.12392 0.00007561494
13277.91992 13266.44929 13063.58447 0.000075313
13328.88965 13263.9364 13063.05663 0.000075025
13122.13965 13261.37581 13062.54054 0.00007620708
13106.84961 13258.79735 13062.03631 0.00007629598
13364.19043 13256.22828 13061.54408 0.00007482683
13043.5498 13253.69421 13061.06397 0.00007666625
13324.16016 13251.21798 13060.59608 0.00007505163
13155.86035 13248.81962 13060.14052 0.00007601175
13165.59961 13246.51712 13059.69742 0.00007595552
13167.63965 13244.32619 13059.26687 0.00007594376
13318.62012 13242.25899 13058.84897 0.00007508285
13126.69043 13240.32663 13058.44383 0.00007618066
13339.62988 13238.53754 13058.05153 0.0000749646
13069.24023 13236.89869 13057.67216 0.00007651554
13101.40039 13235.41519 13057.30582 0.00007632772
13299.73047 13234.09007 13056.95258 0.00007518949
13295.7998 13232.92575 13056.61252 0.00007521172
13008.32031 13231.92327 13056.28573 0.00007687388
13051.61035 13231.08304 13055.97226 0.0000766189
13051.37012 13230.40396 13055.6722 0.00007662031
13191.71973 13229.88498 13055.38559 0.00007580513
13355.33008 13229.52494 13055.11251 0.00007487647
13268.99023 13229.32221 13054.85301 0.00007536368
13281.15039 13229.27457 13054.60713 0.00007529468
13106.05957 13229.38049 13054.37493 0.00007630058
13030.08984 13229.6385 13054.15646 0.00007674544
13336.07031 13230.0476 13053.95175 0.00007498461
13178.91016 13230.60673 13053.76083 0.00007587881
13550.38965 13231.31591 13053.58375 0.00007379862
13391.08984 13232.17519 13053.42052 0.00007467652
13256.15039 13233.18648 13053.27118 0.00007543668
13350.98047 13234.35124 13053.13574 0.00007490087
13120.54004 13235.67186 13053.01422 0.00007621638
13359.12988 13237.15162 13052.90663 0.00007485517
13204.33984 13238.79459 13052.81298 0.00007573268
13283.54004 13240.60516 13052.73327 0.00007528114
13331.58008 13242.58876 13052.6675 0.00007500986
13109.42969 13244.75095 13052.61568 0.00007628097
13400.16016 13247.09908 13052.57779 0.00007462597
13437.62012 13249.64028 13052.55381 0.00007441794
13319.19043 13252.38217 13052.54374 0.00007507964
13311.5498 13255.33335 13052.54755 0.00007512273
13307.17969 13258.50279 13052.56522 0.0000751474
13494.08008 13261.90019 13052.59673 0.00007410657
13426.99023 13265.53566 13052.64203 0.00007447685
13479.91992 13269.41943 13052.70109 0.00007418442
13476.41992 13273.56396 13052.77388 0.00007420368
13274.82031 13277.98127 13052.86035 0.00007533059
13297.82031 13282.6838 13052.96044 0.00007520029
13199.65039 13287.68524 13053.07412 0.00007575958
13328.08008 13292.99984 13053.20132 0.00007502956
13461.53027 13298.6428 13053.34199 0.00007428576
13323.96973 13304.63 13053.49606 0.00007505271
13227.84961 13310.97841 13053.66346 0.00007559808
13300.19043 13317.70461 13053.84413 0.00007518689
13415.66016 13324.82999 13054.03799 0.00007453975
13466.26953 13332.37315 13054.24495 0.00007425962
13330.57031 13340.35507 13054.46495 0.00007501555
13389.67969 13348.79771 13054.69789 0.00007468439
13389.54004 13357.72403 13054.94369 0.00007468516
13332.54004 13367.15792 13055.20224 0.00007500446
13467.12012 13377.12429 13055.47346 0.00007425493
13419.34961 13387.6473 13055.75725 0.00007451926
13626.98047 13398.7555 13056.0535 0.00007338383
13657.16992 13410.47511 13056.3621 0.00007322161
13535.44043 13422.83251 13056.68295 0.00007388012
13788.76953 13435.85416 13057.01592 0.00007252279
13582.58984 13449.56594 13057.36092 0.00007362366
13358.61035 13463.99212 13057.7178 0.00007485809
13530.66992 13479.15522 13058.08646 0.00007390617
13655.41016 13495.07245 13058.46676 0.00007323105
13475.95996 13511.76276 13058.85858 0.00007420622
13636.79004 13529.23575 13059.26178 0.00007333104
13360.66992 13547.49423 13059.67622 0.00007484655
13657.46973 13566.53378 13060.10178 0.00007322
13858.69043 13586.33921 13060.5383 0.00007215689
13517.32031 13606.88371 13060.98564 0.00007397916
13778.59961 13628.12579 13061.44365 0.00007257632
13629.12012 13650.00789 13061.91219 0.00007337231
13635.78027 13672.44935 13062.39111 0.00007333647
13702.25977 13695.36128 13062.88024 0.00007298066
13651.15039 13718.62 13063.37943 0.0000732539
13601.17969 13742.0835 13063.88852 0.00007352303
13774.12988 13765.58522 13064.40734 0.00007259987
13731.23047 13788.93602 13064.93574 0.00007282669
13620.21973 13811.92557 13065.47354 0.00007342025
13710.24023 13834.32632 13066.02058 0.00007293818
13553.75 13855.89536 13066.57667 0.00007378032
13752.70996 13876.3884 13067.14166 0.00007271294
13699.2002 13895.55888 13067.71536 0.00007299696
13827.46973 13913.16788 13068.2976 0.00007231981
13485.66992 13928.99485 13068.8882 0.00007415279
13723.75 13942.8448 13069.48697 0.00007286638
13903.41016 13954.55609 13070.09373 0.0000719248
13739.79004 13964.00631 13070.7083 0.00007278132
13766.61035 13971.11723 13071.33049 0.00007263952
13642.65039 13975.85387 13071.96011 0.00007329954
13921.38965 13978.23163 13072.59698 0.00007183191
13650.75977 13978.30742 13073.2409 0.000073256
13906.92969 13976.18115 13073.89169 0.0000719066
13808.7998 13971.98943 13074.54914 0.00007241759
13884.45996 13965.90103 13075.21307 0.00007202297
13974.37012 13958.11125 13075.88327 0.00007155958
14136.42969 13948.83603 13076.55957 0.00007073922
13721.80957 13938.3082 13077.24174 0.00007287669
13814.29004 13926.75963 13077.92961 0.00007238881
13917.24023 13914.43299 13078.62297 0.00007185333
14047.09961 13901.56531 13079.32162 0.00007118907
13962.80957 13888.38595 13080.02536 0.00007161882
13930.15039 13875.11052 13080.734 0.00007178673
13770.7002 13861.93884 13081.44733 0.00007261795
13860.70996 13849.05265 13082.16515 0.00007214638
13888.48047 13836.616 13082.88726 0.00007200212
13644.87988 13824.75997 13083.61346 0.00007328756
13860.37012 13813.60467 13084.34355 0.00007214815
13828.37988 13803.24468 13085.07733 0.00007231505
13672.5498 13793.75414 13085.8146 0.00007313925
13957.26953 13785.18485 13086.55516 0.00007164725
13800.79004 13777.56997 13087.29881 0.00007245962
13821.66016 13770.92514 13088.04534 0.00007235021
14022.38965 13765.24995 13088.79456 0.00007131452
13766.30957 13760.52524 13089.54628 0.00007264111
13761.55957 13756.7188 13090.30028 0.00007266618
14002.54004 13753.78621 13091.05639 0.00007141561
13689.26953 13751.67436 13091.81439 0.00007304992
13837.45996 13750.31579 13092.5741 0.0000722676
13900.16016 13749.63553 13093.33532 0.00007194162
13980.21973 13749.55132 13094.09785 0.00007152963
13954.11035 13749.9758 13094.86151 0.00007166347
13895.30957 13750.81848 13095.62611 0.00007196673
13945.71973 13751.98124 13096.39145 0.00007170659
13892.87012 13753.36927 13097.15735 0.00007197937
13890.62988 13754.88884 13097.92363 0.00007199098
14002 13756.44466 13098.69009 0.00007141837
13761.80957 13757.94392 13099.45655 0.00007266486
13720.33008 13759.29642 13100.22284 0.00007288454
13842.4502 13760.41521 13100.98877 0.00007224155
13835.13965 13761.21631 13101.75417 0.00007227972
13693.11035 13761.61907 13102.51885 0.00007302943
13888.23047 13761.5457 13103.28266 0.00007200341
13932.90039 13760.92787 13104.04542 0.00007177257
13780.66992 13759.6989 13104.80695 0.00007256541
13860.00977 13757.80232 13105.56709 0.00007215002
14004.33984 13755.19091 13106.32569 0.00007140644
13971.51953 13751.82812 13107.08257 0.00007157418
14039.42969 13747.69053 13107.83758 0.00007122796
13659.5 13742.7669 13108.59056 0.00007320912
13763.61035 13737.06193 13109.34136 0.00007265536
13620.96973 13730.59502 13110.08982 0.00007341621
13858.70996 13723.39648 13110.83581 0.00007215679
13637.55957 13715.5125 13111.57917 0.0000733269
13641.55957 13706.99963 13112.31977 0.0000733054
13553.40039 13697.92535 13113.05746 0.00007378222
13689.46973 13688.36356 13113.79212 0.00007304885
13726.73047 13678.39638 13114.5236 0.00007285056
13541.2002 13668.10797 13115.25177 0.0000738487
13803.67969 13657.58787 13115.97652 0.00007244445
13592.17969 13646.92343 13116.69773 0.00007357172
13620.96973 13636.20237 13117.41526 0.00007341621
13646.87012 13625.51032 13118.12901 0.00007327688
13548.17969 13614.92993 13118.83887 0.00007381065
13376.28027 13604.5367 13119.54472 0.0000747592
13715.91016 13594.40247 13120.24646 0.00007290803
13674.21973 13584.58981 13120.944 0.00007313032
13575.92969 13575.15654 13121.63724 0.00007365978
13686.16016 13566.15053 13122.32607 0.00007306651
13658.38965 13557.6137 13123.01043 0.00007321507
13667.4502 13549.58041 13123.69021 0.00007316654
13460.33008 13542.07935 13124.36534 0.00007429238
13334.63965 13535.13084 13125.03574 0.00007499265
13404.83984 13528.75091 13125.70134 0.00007459992
13601.92969 13522.94864 13126.36207 0.00007351898
13577.58008 13517.7301 13127.01787 0.00007365083
13659.91016 13513.09528 13127.66867 0.00007320692
13565.54004 13509.04129 13128.31443 0.0000737162
13395.00977 13505.56182 13128.95508 0.00007465467
13498.2998 13502.64623 13129.59058 0.0000740834
13367.2998 13500.28285 13130.2209 0.00007480942
13334.92969 13498.45414 13130.84598 0.00007499102
13205.53027 13497.14178 13131.4658 0.00007572585
13367.08984 13496.32133 13132.08032 0.0000748106
13362 13495.96732 13132.68953 0.0000748391
13316.61035 13496.0488 13133.2934 0.00007509418
13602.45996 13496.53143 13133.89191 0.00007351611
13435.98047 13497.376 13134.48505 0.00007442702
13706.5498 13498.54119 13135.07282 0.00007295782
13283.25 13499.97812 13135.65521 0.00007528278
13349.50977 13501.63591 13136.23222 0.00007490912
13248.7998 13503.4576 13136.80387 0.00007547854
13636.2002 13505.38386 13137.37016 0.00007333421
13559.07031 13507.35174 13137.93111 0.00007375137
13340.95996 13509.2966 13138.48673 0.00007495712
13549.94043 13511.1527 13139.03706 0.00007380106
13238.16992 13512.8563 13139.58212 0.00007553914
13467.78027 13514.3444 13140.12195 0.00007425129
13666.33984 13515.55825 13140.65658 0.00007317248
13351.26953 13516.4449 13141.18606 0.00007489924
13327.2998 13516.95811 13141.71043 0.00007503395
13539.41016 13517.05948 13142.22976 0.00007385846
13572.07031 13516.72027 13142.74408 0.00007368073
13517.12012 13515.92148 13143.25348 0.00007398026
13515.42969 13514.65423 13143.758 0.00007398951
13535.53027 13512.91937 13144.25773 0.00007387963
13421.65039 13510.72729 13144.75273 0.00007450649
13520.88965 13508.09816 13145.24309 0.00007395963
13547.21973 13505.0588 13145.72889 0.00007381588
13487.66016 13501.64394 13146.21021 0.00007414184
13338.37012 13497.89331 13146.68716 0.00007497168
13293.25977 13493.85152 13147.15981 0.00007522609
13349.21973 13489.56677 13147.62829 0.00007491075
13506.40039 13485.08737 13148.09268 0.00007403897
13312.19043 13480.46401 13148.5531 0.00007511912
13384.53027 13475.74582 13149.00967 0.00007471312
13444.71973 13470.9805 13149.46249 0.00007437864
13351.16992 13466.21317 13149.91169 0.0000748998
13551.69043 13461.48539 13150.3574 0.00007379153
13483.76953 13456.83462 13150.79975 0.00007416324
13566.41016 13452.29437 13151.23886 0.00007371147
13471.16992 13447.89092 13151.67488 0.0000742326
13326.63965 13443.64803 13152.10794 0.00007503767
13456.90039 13439.58349 13152.53819 0.00007431132
13278.91016 13435.70873 13152.96578 0.00007530739
13324.65039 13432.03151 13153.39085 0.00007504887
13192.05957 13428.55422 13153.81357 0.00007580317
13454.04004 13425.27525 13154.23409 0.00007432712
13385.24023 13422.18862 13154.65257 0.00007470916
13341.92969 13419.28507 13155.06918 0.00007495168
13362.76953 13416.55134 13155.48408 0.00007483479
13362.25977 13413.97262 13155.89746 0.00007483764
13396.73047 13411.53092 13156.30947 0.00007464508
13571.44043 13409.20716 13156.7203 0.00007368415
13271.13965 13406.98122 13157.13012 0.00007535148
13540.25977 13404.83248 13157.53913 0.00007385383
13718.59961 13402.74018 13157.9475 0.00007289374
13136.13965 13400.6845 13158.35543 0.00007612587
13530.2998 13398.64575 13158.7631 0.00007390819
13563.33008 13396.60675 13159.17071 0.00007372821
13594.36035 13394.55117 13159.57845 0.00007355992
13236.41016 13392.46537 13159.98652 0.00007554919
13350.20996 13390.33777 13160.39512 0.00007490519
13408.67969 13388.15934 13160.80445 0.00007457856
13453.91992 13385.92336 13161.21472 0.00007432778
13251.61035 13383.62589 13161.62612 0.00007546253
13303.46973 13381.26488 13162.03887 0.00007516836
13438.79004 13378.84071 13162.45318 0.00007441146
13365.4502 13376.3565 13162.86925 0.00007481978
13687.79004 13373.81661 13163.28729 0.00007305781
13416.37012 13371.22768 13163.70753 0.00007453581
13482.58008 13368.59777 13164.13017 0.00007416978
13417.65039 13365.93623 13164.55542 0.0000745287
13416.58984 13363.2543 13164.98351 0.00007453459
13443.15039 13360.5617 13165.41465 0.00007438733
13614.7998 13357.87293 13165.84906 0.00007344948
13535.08984 13355.19756 13166.28695 0.00007388204
13481.53027 13352.55134 13166.72854 0.00007417556
13318.0498 13349.9447 13167.17406 0.00007508607
13511.16016 13347.39078 13167.62371 0.00007401289
13460.58008 13344.90181 13168.07772 0.000074291
13427.73047 13342.48884 13168.53631 0.00007447275
13491.82031 13340.16417 13168.9997 0.00007411898
13489.5 13337.93662 13169.4681 0.00007413173
13527.03027 13335.81796 13169.94173 0.00007392606
13411.87988 13333.81461 13170.42081 0.00007456076
13368.83984 13331.93775 13170.90556 0.00007480081
13358.17969 13330.19295 13171.39618 0.0000748605
13195.92969 13328.5881 13171.8929 0.00007578094
13223.04004 13327.12923 13172.39593 0.00007562557
13467.29004 13325.82162 13172.90549 0.00007425399
13404.20996 13324.67195 13173.42177 0.00007460343
13092.07031 13323.68248 13173.94499 0.00007638211
13407.07031 13322.85985 13174.47537 0.00007458751
13169.24023 13322.20531 13175.0131 0.00007593452
13419.65039 13321.72443 13175.55839 0.00007451759
13610.95996 13321.41818 13176.11144 0.0000734702
13423.83008 13321.28948 13176.67245 0.00007449439
13219.34961 13321.34133 13177.24162 0.00007564669
13370.86035 13321.57354 13177.81915 0.0000747895
13182.48047 13321.98931 13178.40522 0.00007585826
13497.95996 13322.58642 13179.00003 0.00007408527
13280.01953 13323.36726 13179.60377 0.00007530109
13101.0498 13324.3286 13180.21661 0.00007632976
13236.66016 13325.46947 13180.83875 0.00007554776
13077.33984 13326.78525 13181.47035 0.00007646815
13374.55957 13328.27088 13182.1116 0.00007476882
13213.41016 13329.92075 13182.76265 0.00007568069
13299.78027 13331.72325 13183.42369 0.00007518921
13220.75 13333.66918 13184.09488 0.00007563867
13416.0498 13335.7409 13184.77636 0.00007453759
13417.7998 13337.92347 13185.46831 0.00007452787
13406.91992 13340.19375 13186.17087 0.00007458835
13587.16016 13342.52845 13186.88419 0.0000735989
13394.57031 13344.89864 13187.60842 0.00007465712
13179.73047 13347.27307 13188.34368 0.00007587409
13123.80957 13349.61959 13189.09012 0.00007619739
13312.95996 13351.8995 13189.84786 0.00007511478
13264.08008 13354.07782 13190.61703 0.00007539158
13344.83984 13356.11577 13191.39775 0.00007493533
13481.80957 13357.97801 13192.19014 0.00007417402
13391.59961 13359.63018 13192.99429 0.00007467368
13294.71973 13361.04205 13193.81032 0.00007521783
13271.33984 13362.18911 13194.63832 0.00007535034
13416.37988 13363.05071 13195.47839 0.00007453575
13427.41992 13363.61455 13196.33062 0.00007447447
13317.69043 13363.87305 13197.19507 0.00007508809
13320.38965 13363.82647 13198.07184 0.00007507288
13459.48047 13363.48134 13198.96099 0.00007429707
13313.03027 13362.84834 13199.86257 0.00007511438
13314.26953 13361.94559 13200.77666 0.00007510739
13518.46973 13360.79343 13201.7033 0.00007397287
13361.2998 13359.41609 13202.64254 0.00007484302
13440.12012 13357.84219 13203.5944 0.0000744041
13440.61035 13356.1001 13204.55893 0.00007440138
13399.78027 13354.22193 13205.53615 0.00007462809
13271.79004 13352.23804 13206.52608 0.00007534779
13190.67969 13350.18083 13207.52873 0.0000758111
13153.15039 13348.08001 13208.54409 0.00007602741
13561.92969 13345.9659 13209.57218 0.00007373582
13428.84961 13343.86562 13210.61298 0.00007446654
13332.09961 13341.80316 13211.66647 0.00007500694
13284.98047 13339.80299 13212.73263 0.00007527297
13354.0498 13337.88327 13213.81143 0.00007488365
13274.40039 13336.06134 13214.90283 0.00007533297
13393.59961 13334.3508 13216.00678 0.00007466253
13277.57031 13332.76275 13217.12323 0.00007531498
13232.74023 13331.30541 13218.25212 0.00007557014
13414.50977 13329.98282 13219.39337 0.00007454615
13308.20996 13328.79943 13220.54692 0.00007514159
13282.11035 13327.75405 13221.71268 0.00007528924
13460.91016 13326.84619 13222.89056 0.00007428918
13102.55957 13326.07103 13224.08046 0.00007632097
13340.75 13325.42298 13225.28226 0.0000749583
13320.5498 13324.89493 13226.49586 0.00007507198
13450.32031 13324.47825 13227.72114 0.00007434767
13169.21973 13324.1636 13228.95796 0.00007593464
13280.12012 13323.93997 13230.20618 0.00007530052
13133.65039 13323.79821 13231.46565 0.00007614029
13255.58984 13323.72718 13232.73624 0.00007543987
13270.46973 13323.71847 13234.01776 0.00007535528
13334.59961 13323.763 13235.31005 0.00007499288
13216.28027 13323.85387 13236.61293 0.00007566425
13402.7998 13323.98564 13237.92621 0.00007461128
13301.16992 13324.15393 13239.24971 0.00007518136
13207 13324.35651 13240.58321 0.00007571742
13240.36035 13324.59131 13241.92652 0.00007552665
13426.28027 13324.85926 13243.2794 0.00007448079
13305.73047 13325.16049 13244.64164 0.00007515559
13253.11035 13325.49715 13246.01299 0.00007545399
13331.41016 13325.8716 13247.39323 0.00007501082
13459.7002 13326.2866 13248.78209 0.00007429586
13374.58984 13326.74601 13250.17933 0.00007476865
13341.23047 13327.25261 13251.58467 0.0000749556
13174.25 13327.81094 13252.99784 0.00007590565
13345.66992 13328.42402 13254.41857 0.00007493067
13443.08984 13329.09607 13255.84656 0.00007438766
13200.13965 13329.83001 13257.28152 0.00007575677
13473.87012 13330.62906 13258.72314 0.00007421773
13339.7002 13331.496 13260.17112 0.0000749642
13320.16992 13332.43268 13261.62513 0.00007507412
13593.69043 13333.44129 13263.08486 0.00007356354
13535.21973 13334.52256 13264.54996 0.00007388133
13093.48047 13335.67789 13266.0201 0.00007637389
13383.83008 13336.90728 13267.49494 0.00007471703
13388.53027 13338.21133 13268.9741 0.0000746908
13402.58008 13339.58971 13270.45725 0.0000746125
13337.04004 13341.04213 13271.944 0.00007497916
13404.88965 13342.5687 13273.43399 0.00007459964
13212.16992 13344.16847 13274.92683 0.00007568779
13268.26953 13345.84157 13276.42214 0.00007536778
13339 13347.5871 13277.91952 0.00007496814
13387.33984 13349.40526 13279.41857 0.00007469744
13417.57031 13351.29531 13280.91888 0.00007452914
13282.32031 13353.25703 13282.42005 0.00007528805
13433.63965 13355.2909 13283.92165 0.00007443999
13525.7998 13357.3958 13285.42327 0.00007393278
13454.70996 13359.57241 13286.92446 0.00007432342
13441.87988 13361.81978 13288.4248 0.00007439436
13271.83008 13364.1382 13289.92384 0.00007534756
13468.37012 13366.52655 13291.42114 0.00007424803
13503.65039 13368.98459 13292.91625 0.00007405405
13364.12012 13371.51069 13294.40871 0.00007482722
13188.87988 13374.1033 13295.89806 0.00007582145
13438 13376.76105 13297.38384 0.00007441584
13344.59961 13379.47984 13298.86558 0.00007493668
13443.4502 13382.25708 13300.34279 0.00007438567
13420.04004 13385.08713 13301.81501 0.00007451543
13410.83984 13387.96489 13303.28176 0.00007456655
13242.08008 13390.88244 13304.74254 0.00007551684
13321.51953 13393.83174 13306.19687 0.00007506651
13306.37012 13396.80203 13307.64425 0.00007515198
13507.74023 13399.7814 13309.08419 0.00007403163
13455.16016 13402.75723 13310.51619 0.00007432093
13405.28027 13405.71273 13311.93976 0.00007459747
13343.49023 13408.63219 13313.35437 0.00007494291
13263.70996 13411.49648 13314.75953 0.00007539369
13751.5498 13414.28663 13316.15473 0.00007271908
13657.5 13416.98194 13317.53946 0.00007321984
13348.88965 13419.56167 13318.9132 0.0000749126
13441.79004 13422.00638 13320.27544 0.00007439485
13557.84961 13424.2952 13321.62567 0.00007375801
13490.54004 13426.41081 13322.96337 0.00007412602
13436.41016 13428.33661 13324.28801 0.00007442464
13467.66992 13430.05866 13325.59909 0.00007425189
13410.00977 13431.56621 13326.89608 0.00007457116
13538.59961 13432.85072 13328.17846 0.00007386288
13384.23047 13433.90819 13329.44572 0.00007471479
13293.87988 13434.73642 13330.69733 0.00007522258
13345.5 13435.33721 13331.93278 0.00007493162
13523.66016 13435.71497 13333.15155 0.00007394448
13474.11035 13435.87647 13334.35312 0.0000742164
13533.58008 13435.83148 13335.53698 0.00007389028
13395.62988 13435.59051 13336.7026 0.00007465121
13491.38965 13435.1671 13337.84949 0.00007412135
13331.61035 13434.5742 13338.97712 0.00007500969
13404.12012 13433.82779 13340.08499 0.00007460393
13353.0498 13432.94253 13341.17259 0.00007488926
13295.0498 13431.93361 13342.23942 0.00007521596
13483.2002 13430.81739 13343.28498 0.00007416637
13367.16016 13429.60817 13344.30876 0.00007481021
13426.05957 13428.32094 13345.31028 0.00007448202
13463.87012 13426.96922 13346.28904 0.00007427285
13526.23047 13425.56636 13347.24455 0.00007393043
13475.19043 13424.12409 13348.17634 0.00007421045
13459.9502 13422.65323 13349.08392 0.00007429448
13557.7998 13421.16504 13349.96682 0.00007375828
13319.42969 13419.6686 13350.82456 0.00007507829
13376.16016 13418.1733 13351.6567 0.00007475987
13337.41016 13416.68818 13352.46275 0.00007497707
13432.91016 13415.22208 13353.24228 0.00007444403
13335.19043 13413.78332 13353.99484 0.00007498956
13214.37988 13412.38156 13354.71997 0.00007567514
13239.69043 13411.02559 13355.41726 0.00007553047
13241.57031 13409.72472 13356.08626 0.00007551974
13527.59961 13408.48914 13356.72656 0.00007392294
13324.5 13407.32815 13357.33775 0.00007504972
13385.33984 13406.25139 13357.91941 0.0000747086
13455.73047 13405.26808 13358.47114 0.00007431778
13414.66992 13404.38661 13358.99256 0.00007454526
13452.19043 13403.61396 13359.48327 0.00007433734
13453.29004 13402.95645 13359.94291 0.00007433126
13391.76953 13402.41807 13360.37111 0.00007467273
13469.9502 13402.0011 13360.7675 0.00007423932
13546.82031 13401.70658 13361.13175 0.00007381806
13370.05957 13401.53267 13361.4635 0.00007479398
13430.66992 13401.47679 13361.76242 0.00007445645
13565.92969 13401.5341 13362.02821 0.00007371408
13493.40039 13401.6988 13362.26054 0.0000741103
13647.87988 13401.96419 13362.45911 0.00007327145
13360.99023 13402.32165 13362.62363 0.00007484475
13260.36035 13402.76333 13362.75383 0.00007541273
13053.79004 13403.27952 13362.84943 0.0000766061
13202.44043 13403.86115 13362.91018 0.00007574357
13400.94043 13404.49844 13362.93582 0.00007462163
13462.54004 13405.18189 13362.92613 0.00007428019
13527.46973 13405.90278 13362.88087 0.00007392365
13492.37012 13406.65145 13362.79984 0.00007411596
13525.87988 13407.42047 13362.68283 0.00007393234
13522.41992 13408.20133 13362.52965 0.00007395126
13509.59961 13408.98797 13362.34014 0.00007402144
13605.75 13409.77416 13362.11412 0.00007349834
13267.01953 13410.55485 13361.85144 0.00007537488
13733.42969 13411.326 13361.55197 0.00007281502
13285.75 13412.08407 13361.21559 0.00007526861
13220.01953 13412.82727 13360.84217 0.00007564285
13078.50977 13413.55339 13360.43162 0.00007646131
13264.80957 13414.26192 13359.98385 0.00007538744
13373.58008 13414.95227 13359.4988 0.00007477429
13363.25 13415.62478 13358.97641 0.0000748321
13529.24023 13416.28028 13358.41663 0.00007391398
13528.29004 13416.91956 13357.81943 0.00007391917
13496.30957 13417.54433 13357.18479 0.00007409433
13472.87988 13418.15576 13356.51272 0.00007422318
13270.03027 13418.75629 13355.80323 0.00007535778
13511.53027 13419.34748 13355.05634 0.00007401086
13452.5 13419.9315 13354.2721 0.00007433563
13355.87012 13420.51078 13353.45056 0.00007487344
13386.73047 13421.08702 13352.5918 0.00007470084
13170.05957 13421.66287 13351.6959 0.0000759298
13497.83984 13422.23983 13350.76296 0.00007408593
13297.20996 13422.82086 13349.79309 0.00007520375
13463.66992 13423.40692 13348.78644 0.00007427395
13270.54004 13424.00074 13347.74314 0.00007535488
13338.92969 13424.6035 13346.66336 0.00007496853
13246.45996 13425.21689 13345.54727 0.00007549187
13237.75977 13425.84279 13344.39507 0.00007554148
13547.2002 13426.48173 13343.20696 0.00007381599
13623.86035 13427.13544 13341.98317 0.00007340063
13647.53027 13427.80397 13340.72392 0.00007327333
13488.29004 13428.48882 13339.42948 0.00007413838
13251.40039 13429.19001 13338.10011 0.00007546372
13390.9502 13429.9079 13336.7361 0.0000746773
13211.83008 13430.64336 13335.33775 0.00007568974
13460.7998 13431.39566 13333.90536 0.00007428979
13364.46973 13432.16599 13332.43928 0.00007482527
13311.25977 13432.95376 13330.93983 0.00007512437
13335.0498 13433.76031 13329.40739 0.00007499035
13559.32031 13434.58536 13327.84232 0.00007375001
13492.99023 13435.43114 13326.24502 0.00007411256
13555.58984 13436.29836 13324.61588 0.00007377031
13207.61035 13437.18941 13322.95534 0.00007571392
13522.20996 13438.10779 13321.26382 0.00007395241
13664.69043 13439.05605 13319.54178 0.00007318131
13251.91992 13440.03964 13317.78967 0.00007546076
13527.19043 13441.06263 13316.00797 0.00007392518
13237.62988 13442.13288 13314.19718 0.00007554222
13432.58984 13443.25566 13312.3578 0.00007444581
13442.66992 13444.44092 13310.49035 0.00007438998
13597.94043 13445.69577 13308.59537 0.00007354055
13591.28027 13447.03093 13306.6734 0.00007357659
13578.23047 13448.45739 13304.72501 0.0000736473
13384.76953 13449.98473 13302.75077 0.00007471178
13360.08984 13451.6258 13300.75127 0.0000748498
13470.95996 13453.3904 13298.72711 0.00007423376
13408.04004 13455.29258 13296.67892 0.00007458212
13606.61035 13457.34123 13294.6073 0.00007349369
13470.75977 13459.5487 13292.51291 0.00007423486
13260.48047 13461.92585 13290.39639 0.00007541205
13453.59961 13464.47976 13288.25842 0.00007432955
13480.90039 13467.21978 13286.09966 0.00007417902
13421.88965 13470.14908 13283.92081 0.00007450516
13612.75 13473.27286 13281.72256 0.00007346054
13552.26953 13476.58818 13279.50563 0.00007378838
13395.49023 13480.09497 13277.27073 0.00007465199
13665.05957 13483.78199 13275.0186 0.00007317934
13854.76953 13487.63907 13272.74998 0.00007217731
13428.62988 13491.65006 13270.46563 0.00007446776
13606.2002 13495.78962 13268.1663 0.00007349591
13638.98047 13500.03226 13265.85276 0.00007331926
13619.45996 13504.34037 13263.5258 0.00007342435
13186.94043 13508.6787 13261.18621 0.0000758326
13384.63965 13512.99664 13258.83478 0.00007471251
13872.12012 13517.24856 13256.47233 0.00007208703
13437.58008 13521.37648 13254.09966 0.00007441816
13351.58008 13525.32509 13251.7176 0.0000748975
13620.41992 13529.03597 13249.32698 0.00007341918
13700.19043 13532.44824 13246.92863 0.00007299169
13531.74023 13535.50578 13244.52339 0.00007390032
13550.07031 13538.15165 13242.11212 0.00007380036
13494.07031 13540.33774 13239.69567 0.00007410662
13635.23047 13542.01689 13237.2749 0.00007333943
13696.66992 13543.15061 13234.85067 0.00007301045
13391.12988 13543.70574 13232.42386 0.0000746763
13634.91016 13543.65663 13229.99534 0.00007334115
13482.67969 13542.9836 13227.56598 0.00007416923
13251.5 13541.67468 13225.13667 0.00007546316
13486.0498 13539.72288 13222.70829 0.0000741507
13418.79004 13537.12918 13220.28173 0.00007452237
13232.55957 13533.89896 13217.85787 0.00007557117
13606.62988 13530.04621 13215.43762 0.00007349358
13262.00977 13525.58851 13213.02186 0.00007540335
13503.87988 13520.54961 13210.61148 0.00007405279
13525.09961 13514.96188 13208.20739 0.00007393661
13446.91992 13508.85943 13205.81047 0.00007436647
13464.70996 13502.28548 13203.42161 0.00007426822
13434.32031 13495.28168 13201.04172 0.00007443622
13513.71973 13487.89978 13198.67168 0.00007399887
13590.25 13480.18599 13196.31239 0.00007358216
13525.13965 13472.19389 13193.96473 0.00007393639
13507.36035 13463.97301 13191.62958 0.00007403371
13323.28027 13455.57183 13189.30784 0.00007505659
13175.55957 13447.04087 13187.00038 0.0000758981
13372.9502 13438.42366 13184.70807 0.00007477782
13284.2998 13429.76695 13182.43179 0.00007527683
13437.99023 13421.10761 13180.1724 0.00007441589
13426.66992 13412.48666 13177.93076 0.00007447863
13369.08008 13403.93798 13175.70774 0.00007479946
13482.59961 13395.49191 13173.50417 0.00007416967
13529.33984 13387.17973 13171.32091 0.00007391344
13426.83984 13379.0241 13169.15877 0.00007447769
13402.70996 13371.04982 13167.01861 0.00007461178
13437.29004 13363.27318 13164.90122 0.00007441977
13332.75 13355.71323 13162.80743 0.00007500328
13454.71973 13348.37921 13160.73804 0.00007432336
13322.24023 13341.28406 13158.69383 0.00007506245
13323.46973 13334.43464 13156.6756 0.00007505552
13355.61035 13327.835 13154.68411 0.0000748749
13423.92969 13321.49099 13152.72013 0.00007449383
13428.84961 13315.40195 13150.7844 0.00007446654
13432.88965 13309.57099 13148.87766 0.00007444415
13036.49023 13303.99368 13147.00065 0.00007670776
13151.2002 13298.67219 13145.15408 0.00007603869
13437.32031 13293.60069 13143.33864 0.0000744196
13332.29004 13288.77838 13141.55502 0.00007500587
13465.53027 13284.20146 13139.80391 0.00007426369
13476.82031 13279.86527 13138.08595 0.00007420148
13377.62988 13275.76836 13136.40179 0.00007475166
13205.11035 13271.9052 13134.75206 0.00007572826
13148.16016 13268.27487 13133.13738 0.00007605627
13195.37012 13264.8718 13131.55834 0.00007578416
13363.88965 13261.69538 13130.01552 0.00007482851
13280.34961 13258.74195 13128.5095 0.00007529922
13345.55957 13256.00935 13127.04081 0.00007493129
13455.94043 13253.49751 13125.60999 0.00007431662
13277.80957 13251.20338 13124.21755 0.00007531363
13329.54004 13249.12818 13122.86398 0.00007502134
13205.69043 13247.26962 13121.54976 0.00007572493
13289.2002 13245.63006 13120.27535 0.00007524907
13417.5498 13244.20772 13119.04118 0.00007452926
13453.7002 13243.00519 13117.84767 0.00007432899
13311.58984 13242.02372 13116.69521 0.00007512251
13280.16016 13241.2638 13115.58419 0.0000753003
13540.03027 13240.72951 13114.51496 0.00007385508
13426.63965 13240.4211 13113.48785 0.0000744788
13265.74023 13240.34361 13112.50319 0.00007538215
13421.65039 13240.49743 13111.56125 0.00007450649
13437.78027 13240.8886 13110.66232 0.00007441705
13284.09961 13241.51785 13109.80664 0.00007527797
13291.48047 13242.39052 13108.99444 0.00007523616
13250.5 13243.51037 13108.22593 0.00007546885
13388.37012 13244.87947 13107.50127 0.00007469169
13216.04004 13246.50384 13106.82064 0.00007566563
13156.58008 13248.38397 13106.18416 0.00007600759
13213.4502 13250.52569 13105.59195 0.00007568046
13435.90039 13252.92811 13105.0441 0.00007442746
13339.80957 13255.59573 13104.54067 0.00007496359
13086.80957 13258.52588 13104.0817 0.00007641282
13510.82031 13261.71862 13103.6672 0.00007401475
13076.29004 13265.1728 13103.29717 0.00007647429
13207.34961 13268.87988 13102.97158 0.00007571542
13192.25977 13272.83571 13102.69037 0.00007580202
13372.04004 13277.02572 13102.45345 0.00007478291
13275.61035 13281.43935 13102.26073 0.0000753261
13342.38965 13286.05423 13102.11207 0.00007494909
13295.50977 13290.85027 13102.00731 0.00007521336
13079.76953 13295.79999 13101.94628 0.00007645395
13214.69043 13300.86886 13101.92877 0.00007567336
13512.75 13306.02299 13101.95455 0.00007400418
13405.36035 13311.21605 13102.02336 0.00007459702
13164.83008 13316.40549 13102.13493 0.00007595996
13237.70996 13321.53684 13102.28895 0.00007554177
13315.98047 13326.56096 13102.48509 0.00007509774
13392.84961 13331.41937 13102.723 0.00007466671
13205.38965 13336.06 13103.00229 0.00007572666
13423.90039 13340.42836 13103.32258 0.000074494
13203.37012 13344.47363 13103.68342 0.00007573824
13279.08984 13348.15181 13104.08437 0.00007530637
13186.74023 13351.4206 13104.52496 0.00007583375
13142.62012 13354.24865 13105.00467 0.00007608833
13330.75977 13356.60883 13105.52299 0.00007501448
13246.94043 13358.48418 13106.07937 0.00007548913
13222.17969 13359.86399 13106.67324 0.0000756305
13330.32031 13360.74593 13107.30401 0.00007501695
13221.46973 13361.13337 13107.97105 0.00007563456
13468.62988 13361.03787 13108.67373 0.0000742466
13179.03027 13360.4744 13109.41139 0.00007587812
13283.12012 13359.46601 13110.18334 0.00007528352
13461.26953 13358.03679 13110.98887 0.0000742872
13316.17969 13356.21945 13111.82725 0.00007509661
13307.37012 13354.04655 13112.69774 0.00007514633
13449.91992 13351.55455 13113.59957 0.00007434989
13458.65039 13348.7854 13114.53194 0.00007430166
13361.83008 13345.77784 13115.49404 0.00007484005
13138.38965 13342.57833 13116.48504 0.00007611283
13234.33008 13339.22565 13117.50409 0.00007556106
13206.96973 13335.76636 13118.55032 0.0000757176
13252.08984 13332.23722 13119.62283 0.0000754598
13347.90039 13328.68153 13120.72073 0.00007491815
13068.75977 13325.13254 13121.84309 0.00007651836
13198.20996 13321.62488 13122.98896 0.00007576785
13257.2998 13318.19011 13124.15739 0.00007543014
13250.69043 13314.85262 13125.3474 0.00007546777
13170.58008 13311.64076 13126.558 0.0000759268
13400.44043 13308.57134 13127.78819 0.00007462441
13325.48047 13305.66652 13129.03694 0.0000750442
13159.00977 13302.93755 13130.30321 0.00007599356
13439.7002 13300.40078 13131.58597 0.00007440642
13382.30957 13298.06411 13132.88414 0.00007472552
13320.07031 13295.93463 13134.19665 0.00007507468
13378.11035 13294.01972 13135.52242 0.00007474897
12977.87988 13292.32048 13136.86034 0.00007705419
13214.90039 13290.84161 13138.20932 0.00007567216
13103.38965 13289.57984 13139.56823 0.00007631613
13212.53027 13288.53651 13140.93594 0.00007568573
13394.46973 13287.70609 13142.31132 0.00007465768
13062.88965 13287.08548 13143.69323 0.00007655274
13169.91992 13286.66871 13145.08051 0.00007593061
13175.91016 13286.44777 13146.47201 0.00007589609
13359.63965 13286.41722 13147.86656 0.00007485232
13194.9502 13286.56545 13149.26299 0.00007578657
13108.21973 13286.88503 13150.66013 0.00007628801
13301.78027 13287.36258 13152.0568 0.00007517791
13497.9502 13287.98857 13153.45182 0.00007408532
13327.13965 13288.74808 13154.84402 0.00007503486
13112.84961 13289.62851 13156.2322 0.00007626107
13115.54004 13290.61471 13157.61517 0.00007624543
13351.23047 13291.69024 13158.99177 0.00007489946
13311.40039 13292.84059 13160.36079 0.00007512358
13269.33984 13294.04654 13161.72106 0.0000753617
13519.2998 13295.29242 13163.0714 0.00007396833
13410.65039 13296.55864 13164.41063 0.0000745676
13258.75 13297.82792 13165.73758 0.00007542189
13435.11035 13299.08241 13167.05107 0.00007443184
13314.5498 13300.30391 13168.34995 0.00007510581
13558.12012 13301.4764 13169.63305 0.00007375654
13250.87988 13302.58306 13170.89923 0.00007546669
13171.03027 13303.61065 13172.14735 0.0000759242
13363.58008 13304.54515 13173.37626 0.00007483025
13308.23047 13305.37617 13174.58485 0.00007514147
13340.99023 13306.09394 13175.772 0.00007495695
13232.45996 13306.69117 13176.93661 0.00007557174
13334.33984 13307.16335 13178.07759 0.00007499434
13294 13307.50633 13179.19385 0.0000752219
13367.54004 13307.71975 13180.28433 0.00007480808
13508.04004 13307.80364 13181.34798 0.00007402998
13484.80957 13307.76058 13182.38377 0.00007415752
13356.05957 13307.5946 13183.39066 0.00007487238
13345.83008 13307.31027 13184.36766 0.00007492977
13172.83984 13306.91446 13185.31378 0.00007591377
13331.08008 13306.41317 13186.22805 0.00007501268
13530.29004 13305.81517 13187.10952 0.00007390825
13126.73047 13305.12754 13187.95725 0.00007618043
13482.91992 13304.35847 13188.77034 0.00007416791
13394.94043 13303.51688 13189.54789 0.00007465505
13093.09961 13302.60958 13190.28903 0.00007637611
13285.41992 13301.64537 13190.99293 0.00007527048
13420.30957 13300.62971 13191.65874 0.00007451393
13288.88965 13299.56988 13192.28568 0.00007525083
13123.4502 13298.47008 13192.87297 0.00007619947
13122.58984 13297.33567 13193.41986 0.00007620447
13317.01953 13296.16929 13193.92562 0.00007509188
13312.67969 13294.97284 13194.38955 0.00007511636
13103.65039 13293.74887 13194.81098 0.00007631461
13295.5498 13292.49617 13195.18926 0.00007521314
13308.75 13291.21572 13195.52378 0.00007513854
13396.19043 13289.90481 13195.81396 0.00007464809
13363.63965 13288.56222 13196.05922 0.00007482991
13285.0498 13287.18518 13196.25905 0.00007527258
13257.65039 13285.77051 13196.41293 0.00007542815
13417.61035 13284.31578 13196.52041 0.00007452892
13265.88965 13282.81722 13196.58105 0.0000753813
13081.61035 13281.27303 13196.59443 0.00007644319
13375.58984 13279.67959 13196.56019 0.00007476306
13387.20996 13278.03602 13196.47798 0.00007469816
13576.61035 13276.34009 13196.3475 0.00007365609
13478.63965 13274.59152 13196.16847 0.00007419146
13472.99023 13272.79063 13195.94064 0.00007422257
13338.59961 13270.93796 13195.66382 0.00007497039
13398.99023 13269.03587 13195.33781 0.00007463249
13222.83984 13267.08655 13194.9625 0.00007562672
13397.4502 13265.09381 13194.53776 0.00007464107
13287 13263.06115 13194.06353 0.00007526153
13468.7002 13260.99286 13193.53978 0.00007424621
13536.96973 13258.89371 13192.9665 0.00007387178
13227.78027 13256.76818 13192.34373 0.00007559847
13413.29004 13254.62106 13191.67154 0.00007455292
13328.25 13252.4564 13190.95003 0.0000750286
13385.41016 13250.27837 13190.17936 0.00007470821
13233.66992 13248.09056 13189.3597 0.00007556483
13128.50977 13245.89597 13188.49126 0.00007617011
13421.45996 13243.69731 13187.57429 0.00007450754
13259.38965 13241.49637 13186.60907 0.00007541825
13198.28027 13239.29504 13185.59593 0.00007576745
13392.16992 13237.09385 13184.53523 0.0000746705
13264.46973 13234.89396 13183.42735 0.00007538937
13069.17969 13232.69522 13182.27272 0.0000765159
13112.13965 13230.49727 13181.0718 0.0000762652
13051.48047 13228.29995 13179.82509 0.00007661966
13011.42969 13226.102 13178.53312 0.00007685551
13374.17969 13223.90255 13177.19646 0.00007477094
13192.04004 13221.70007 13175.8157 0.00007580329
13038.42969 13219.4932 13174.39147 0.00007669635
13283.80957 13217.28011 13172.92445 0.00007527961
13463.07031 13215.05914 13171.41533 0.00007427726
13354.76953 13212.82875 13169.86484 0.00007487961
13112.61035 13210.58704 13168.27374 0.00007626247
13464.80957 13208.33276 13166.64283 0.00007426767
13274.30957 13206.06444 13164.97293 0.00007533348
13104.59961 13203.78096 13163.26489 0.00007630908
13317.70996 13201.48125 13161.51961 0.00007508798
13020.11035 13199.1648 13159.73799 0.00007680426
13150.5 13196.83086 13157.92098 0.00007604274
13449.21973 13194.47903 13156.06955 0.00007435376
13135.21973 13192.10943 13154.18469 0.0000761312
12959.24023 13189.72192 13152.26742 0.00007716502
13122.25977 13187.31691 13150.3188 0.00007620639
13149.87988 13184.89473 13148.3399 0.00007604632
13168.5 13182.45602 13146.33182 0.00007593879
13109.83984 13180.00131 13144.29567 0.00007627858
13257.03027 13177.53175 13142.2326 0.00007543168
13238.98047 13175.04802 13140.14378 0.00007553452
13244.84961 13172.55117 13138.03038 0.00007550105
13087.66992 13170.04245 13135.89361 0.00007640779
13149.71973 13167.52296 13133.73469 0.00007604725
13142.33008 13164.99403 13131.55487 0.00007609001
13085.7998 13162.45698 13129.3554 0.00007641871
13071.96973 13159.91321 13127.13754 0.00007649957
13076.9502 13157.3641 13124.90259 0.00007647043
13026.32031 13154.81114 13122.65185 0.00007676765
13010.33008 13152.2558 13120.38662 0.000076862
13004.07031 13149.69948 13118.10823 0.000076899
13133.2002 13147.14372 13115.81801 0.0000761429
13123.17969 13144.58995 13113.5173 0.00007620104
13227.66992 13142.03962 13111.20745 0.0000755991
12800.57031 13139.4941 13108.88982 0.00007812152
12914.57031 13136.95485 13106.56576 0.00007743192
13072.87988 13134.42314 13104.23664 0.00007649424
12899.7998 13131.90023 13101.90382 0.00007752058
13105.61035 13129.38747 13099.56868 0.0000763032
13007.66992 13126.88601 13097.23258 0.00007687772
13140.12988 13124.39706 13094.89689 0.00007610275
13011.41992 13121.92175 13092.56298 0.00007685556
13209.99023 13119.46122 13090.2322 0.00007570028
13209.67969 13117.01652 13087.90592 0.00007570206
12877.96973 13114.5887 13085.58547 0.00007765199
13189.75977 13112.17888 13083.27222 0.00007581639
13073.44043 13109.78799 13080.96748 0.00007649096
13156.23047 13107.41715 13078.6726 0.00007600961
12949.2002 13105.0673 13076.38887 0.00007722485
13223.48047 13102.73947 13074.1176 0.00007562306
13133.37988 13100.43469 13071.86007 0.00007614186
13137.76953 13098.15397 13069.61756 0.00007611642
12990.45996 13095.89836 13067.39133 0.00007697957
13180.46973 13093.66893 13065.18261 0.00007586983
13131.73047 13091.4668 13062.99261 0.00007615143
13086.63965 13089.29301 13060.82255 0.00007641381
13197.41016 13087.14876 13058.67358 0.00007577244
13242.51953 13085.03522 13056.54688 0.00007551433
13060.75977 13082.9536 13054.44357 0.00007656522
13075.37988 13080.90515 13052.36475 0.00007647961
13104.5 13078.89113 13050.31151 0.00007630966
12911.13965 13076.91294 13048.2849 0.0000774525
12893.37988 13074.97185 13046.28594 0.00007755918
12993.34961 13073.06928 13044.31563 0.00007696245
13111.16016 13071.20658 13042.37492 0.0000762709
13046.99023 13069.38514 13040.46477 0.00007664603
12880.34961 13067.60638 13038.58605 0.00007763764
13313.55957 13065.87159 13036.73964 0.00007511139
12889.54004 13064.18222 13034.92637 0.00007758229
13126.09961 13062.53943 13033.14704 0.00007618409
13099.54004 13060.94462 13031.40241 0.00007633856
13177.73047 13059.39897 13029.6932 0.0000758856
13011.61035 13057.90365 13028.02009 0.00007685444
13213.11035 13056.4598 13026.38373 0.00007568241
13002.08984 13055.06847 13024.78472 0.00007691071
13071.86035 13053.73082 13023.22364 0.00007650021
13476.73047 13052.44773 13021.70101 0.00007420197
13115.36035 13051.22035 13020.2173 0.00007624648
13144.87012 13050.04965 13018.77297 0.0000760753
13231.42969 13048.93659 13017.3684 0.00007557762
13115.17969 13047.88217 13016.00397 0.00007624753
13290.2998 13046.88733 13014.67997 0.00007524285
12977.62988 13045.95316 13013.39668 0.00007705567
13098.50977 13045.08054 13012.15432 0.00007634456
12957.79004 13044.27064 13010.95308 0.00007717365
13148.4502 13043.52432 13009.79308 0.00007605459
13161.45996 13042.84287 13008.67442 0.00007597941
13167.36035 13042.22739 13007.59714 0.00007594537
12649.13965 13041.67896 13006.56125 0.00007905676
12934.62988 13041.19893 13005.56669 0.00007731184
12966.83984 13040.78845 13004.61339 0.00007711979
13157.16016 13040.44907 13003.70121 0.00007600424
13192.33984 13040.18197 13002.82997 0.00007580156
13077.49023 13039.98901 13001.99945 0.00007646727
13068.62012 13039.87136 13001.20938 0.00007651917
13205.42969 13039.83099 13000.45945 0.00007572643
12962.74023 13039.86967 12999.74931 0.00007714418
13141.62012 13039.989 12999.07856 0.00007609412
13139.5 13040.19109 12998.44678 0.0000761064
12876.91016 13040.4776 12997.85347 0.00007765838
12903.08984 13040.85086 12997.29812 0.00007750082
13019.23047 13041.31241 12996.78017 0.00007680946
13026.37988 13041.86453 12996.29903 0.0000767673
13093 13042.50934 12995.85405 0.00007637669
12988.5 13043.24834 12995.44456 0.00007699118
12965.36035 13044.08358 12995.06985 0.00007712859
12985.38965 13045.01616 12994.72918 0.00007700963
13015.96973 13046.04772 12994.42177 0.0000768287
12896.28027 13047.17853 12994.1468 0.00007754174
13086.48047 13048.40939 12993.90343 0.00007641474
12881.78027 13049.73912 12993.69079 0.00007762902
13020.73047 13051.16708 12993.50797 0.00007680061
13258.88965 13052.69095 12993.35404 0.0000754211
13031.7998 13054.30671 12993.22804 0.00007673537
12909.04004 13056.00977 12993.12899 0.00007746509
13111.9502 13057.79283 12993.05589 0.00007626631
13005.59961 13059.64787 12993.00771 0.00007688996
13100.98047 13061.56334 12992.9834 0.00007633016
13179.7002 13063.52747 12992.9819 0.00007587426
12978.19043 13065.52374 12993.00212 0.00007705234
13285.69043 13067.53584 12993.04297 0.00007526895
13096.5498 13069.54429 12993.10333 0.00007635599
13027.87988 13071.52776 12993.1821 0.00007675846
12891.16016 13073.46442 12993.27814 0.00007757254
13087.76953 13075.33146 12993.3903 0.00007640721
13148.5498 13077.10673 12993.51746 0.00007605401
13199.94043 13078.76873 12993.65846 0.00007575792
13074.19043 13080.29879 12993.81215 0.00007648657
13049.41992 13081.68005 12993.97739 0.00007663176
12972.5498 13082.89998 12994.15304 0.00007708585
13447.98047 13083.94857 12994.33795 0.00007436061
12943.51953 13084.82129 12994.53098 0.00007725874
13078.57031 13085.51585 12994.73102 0.00007646096
13012.23047 13086.03531 12994.93695 0.00007685078
13011.83984 13086.38399 12995.14766 0.00007685308
13321.12988 13086.57044 12995.36207 0.00007506871
13108.98047 13086.60494 12995.57909 0.00007628358
12873.28027 13086.49788 12995.79768 0.00007768028
13057.09961 13086.26371 12996.0168 0.00007658669
13053.83984 13085.91493 12996.23544 0.00007660581
13078.4502 13085.46764 12996.45261 0.00007646166
12988.87012 13084.93621 12996.66734 0.00007698899
13169.08008 13084.33783 12996.87869 0.00007593545
13128.62012 13083.68783 12997.08575 0.00007616947
13046.17969 13083.00415 12997.28765 0.00007665079
12998.03027 13082.30321 12997.48354 0.00007693473
13077.24023 13081.60077 12997.67259 0.00007646873
13095.41016 13080.91375 12997.85404 0.00007636263
13259.36035 13080.2563 12998.02713 0.00007541842
12953.33008 13079.64309 12998.19116 0.00007720023
13079.15039 13079.08611 12998.34545 0.00007645757
13076.57031 13078.59716 12998.48938 0.00007647265
13094.75 13078.18481 12998.62235 0.00007636648
13119.29004 13077.85722 12998.7438 0.00007622364
13149.36035 13077.62119 12998.85324 0.00007604933
13034.45996 13077.48044 12998.95018 0.00007671971
13041.87012 13077.4386 12999.0342 0.00007667612
13056.98047 13077.49643 12999.10491 0.00007658739
13136.15039 13077.65424 12999.16196 0.0000761258
13031.24023 13077.90993 12999.20506 0.00007673867
13229.79004 13078.26043 12999.23395 0.00007558699
13221.12988 13078.70138 12999.24839 0.0000756365
13167.37012 13079.22591 12999.24821 0.00007594531
13197.33008 13079.82716 12999.23327 0.0000757729
12846.5 13080.49539 12999.20347 0.00007784221
13033.50977 13081.22083 12999.15874 0.0000767253
13158.08984 13081.99147 12999.09905 0.00007599887
12921.01953 13082.79505 12999.0244 0.00007739327
13430.91992 13083.6171 12998.93484 0.00007445506
13207.71973 13084.44434 12998.83043 0.0000757133
13238.91016 13085.26167 12998.71127 0.00007553492
13199 13086.05411 12998.57747 0.00007576332
13218.98047 13086.80747 12998.42919 0.0000756488
13063.45996 13087.5075 12998.2666 0.0000765494
12747.71973 13088.14131 12998.08986 0.0000784454
13140.75977 13088.69728 12997.89918 0.0000760991
13027.61035 13089.16501 12997.69477 0.00007676005
13016.84961 13089.53595 12997.47683 0.0000768235
12861.41016 13089.80377 12997.24559 0.00007775197
12966.58984 13089.96336 12997.00126 0.00007712128
12987.62988 13090.01241 12996.74405 0.00007699634
13006.92969 13089.94957 12996.47415 0.00007688209
12874.66016 13089.7765 12996.19174 0.00007767195
13109.41992 13089.49494 12995.89699 0.00007628103
13054.73047 13089.10967 12995.59002 0.00007660059
13149.95996 13088.62596 12995.27094 0.00007604586
13068.03027 13088.0497 12994.93981 0.00007652263
13059.50977 13087.38918 12994.59665 0.00007657255
12858.84961 13086.65195 12994.24142 0.00007776745
13125.63965 13085.84762 12993.87405 0.00007618676
13251.90039 13084.97704 12993.49437 0.00007546088
13232.75977 13084.06253 12993.10217 0.00007557003
13048.08984 13083.11331 12992.69716 0.00007663957
13009.48047 13082.13586 12992.27894 0.00007686702
12945.9502 13081.13945 12991.84704 0.00007724423
13134.19043 13080.13327 12991.40091 0.00007613716
13179.03027 13079.12652 12990.93985 0.00007587812
13087.4502 13078.1273 12990.46308 0.00007640908
13119.33984 13077.14319 12989.96969 0.00007622335
13099.86035 13076.1807 12989.45865 0.00007633669
13014.84961 13075.24615 12988.92878 0.00007683531
13003.51953 13074.3441 12988.37877 0.00007690226
13099.25 13073.47901 12987.80714 0.00007634025
12943.73047 13072.6533 12987.21229 0.00007725748
12940.5 13071.86953 12986.59242 0.00007727677
13069.11035 13071.12879 12985.94557 0.0000765163
13056.83008 13070.43147 12985.26961 0.00007658827
13082.05957 13069.77765 12984.56222 0.00007644056
13055.08984 13069.1655 12983.82089 0.00007659848
12938.07031 13068.59389 12983.04291 0.00007729128
13107.83984 13068.0596 12982.22537 0.00007629022
13153.59961 13067.5601 12981.36516 0.00007602482
13165.08984 13067.09143 12980.45894 0.00007595846
13092.74023 13066.65001 12979.50318 0.00007637821
13219.98047 13066.23117 12978.49412 0.00007564308
13043.99023 13065.83031 12977.42777 0.00007666366
12997.03027 13065.44311 12976.29993 0.00007694065
13486.12988 13065.06398 12975.10617 0.00007415026
12988.08984 13064.68848 12973.84184 0.00007699362
13244.25 13064.31068 12972.50206 0.00007550446
13231.12988 13063.92615 12971.08175 0.00007557934
13172.84961 13063.52924 12969.57558 0.00007591372
13066.25 13063.11548 12967.97804 0.00007653305
13242.95996 13062.67937 12966.28339 0.00007551182
13119.25977 13062.21612 12964.4857 0.00007622381
12965.29004 13061.72187 12962.57886 0.00007712901
13028.75977 13061.19113 12960.55655 0.00007675328
12902.91016 13060.62054 12958.41232 0.0000775019
12963.05957 13060.00506 12956.13954 0.00007714228
13051.09961 13059.34179 12953.73147 0.0000766219
13015.86035 13058.6265 12951.18123 0.00007682934
13257.03027 13057.85611 12948.48185 0.00007543168
13048.38965 13057.02905 12945.62631 0.00007663781
13056.08008 13056.14065 12942.60752 0.00007659267
13009.09961 13055.19045 12939.4184 0.00007686927
12996.21973 13054.17492 12936.05185 0.00007694545
13262.55957 13053.09303 12932.50088 0.00007540023
12909.29004 13051.94192 12928.75853 0.00007746359
12880.08008 13050.72079 12924.81804 0.00007763927
12958.19043 13049.42685 12920.67277 0.00007717127
13134.74023 13048.05831 12916.31637 0.00007613398
13009.12988 13046.61482 12911.74275 0.00007686909
12998.37012 13045.09242 12906.94618 0.00007693272
12905.92969 13043.49056 12901.92132 0.00007748376
13004.49023 13041.80497 12896.66334 0.00007689652
13268.2002 13040.03431 12891.16796 0.00007536817
13098.12988 13038.17367 12885.43153 0.00007634678
12967.01953 13036.22061 12879.45114 0.00007711872
12939.09961 13034.16896 12873.22468 0.00007728513
12995.13965 13032.01337 12866.75095 0.00007695185
12886.46973 13029.74934 12860.0298 0.00007760077
12902.24023 13027.36695 12853.06217 0.00007750592
13201.38965 13024.85935 12845.85028 0.0000757496
13127.17969 13022.2145 12838.39774 0.00007617783
12900.03027 13019.42266 12830.70963 0.0000775192
13075.41992 13016.46903 12822.79274 0.00007647938
12979.91016 13013.33937 12814.65565 0.00007704214
12968.82031 13010.0204 12806.3089 0.00007710802
12848.44043 13006.49074 12797.7652 0.00007783046
13177.01953 13002.73557 12789.03958 0.0000758897
13097.96973 12998.7339 12780.1496 0.00007634771
13022.59961 12994.46792 12771.11553 0.00007678958
12901.83008 12989.78697 12761.96059 0.00007750838
12958.91016 12984.93773 12752.71118 0.00007716698
13000.24023 12979.70817 12743.39709 0.00007692166
12943.87988 12974.21898 12734.05177 0.00007725659
12951.69043 12968.40066 12724.71263 0.00007721
13008.73047 12962.25379 12715.42126 0.00007687145
12735.66992 12955.78751 12706.22376 0.00007851962
13108.49023 12949.02114 12697.17105 0.00007628644
13032.99023 12941.98298 12688.31921 0.00007672836
13033.44043 12934.71512 12679.72977 0.00007672571
12888.37988 12927.26918 12671.47016 0.00007758927
12943.58008 12919.7128 12663.61399 0.00007725838
12887.95996 12912.12374 12656.24153 0.0000775918
12845.82031 12904.59398 12649.44008 0.00007784633
12745.26953 12897.23078 12643.30442 0.00007846048
13043.48047 12890.14979 12637.93729 0.00007666665
12637.12988 12883.48485 12633.44982 0.00007913189
12990.25 12877.37688 12629.96208 0.00007698081
12721.82031 12871.98523 12627.60361 0.0000786051
12940.83984 12867.4774 12626.51392 0.00007727474
12806.00977 12864.03399 12626.84313 0.00007808834
12647.55957 12861.8524 12628.7525 0.00007906664
12961.15039 12861.13759 12632.41514 0.00007715365
13011.69043 12862.11343 12638.0166 0.00007685396
12831.13965 12865.01195 12645.75561 0.0000779354
12865.2002 12870.08407 12655.84476 0.00007772907
12821.87012 12877.5901 12668.51125 0.00007799174
12937.76953 12887.80904 12683.9977 0.00007729308
12843.30957 12901.03223 12702.56294 0.00007786155
loop_
_refln_index_h
_refln_index_k
_refln_index_l
_refln_F_squared_meas
_refln_F_squared_calc
_refln_phase_calc
_refln_d_spacing
_gsas_i100_meas
1 1 1 550386.2513 548912.4237 -180.0 9.91000 100.00
2 2 0 12905.2973 10515.9672 -0.0 6.06861 1.79
3 1 1 5000.9087 4991.2620 0.0 5.17533 4.44
2 2 2 537934.6934 531848.4272 180.0 4.95500 23.76
4 0 0 1.2198633900e6 1.2261894920e6 0.0 4.29116 6.38
3 3 1 15749.4833 15400.3001 -180.0 3.93784 4.44
4 2 2 19748.1466 20294.4701 -0.0 3.50372 2.59
5 1 1 34806.8311 34258.2899 -180.0 3.30333 7.40
3 3 3 52455.1038 51732.9597 180.0 3.30333 1.00
4 4 0 760681.6437 736861.8770 0.0 3.03431 25.27
5 3 1 138271.8421 133865.0823 0.0 2.90135 6.68
4 4 2 20627.7879 20407.7265 180.0 2.86077 0.52
6 2 0 111522.5027 102704.4481 -0.0 2.71397 5.12
5 3 3 121331.2030 110885.0581 -180.0 2.61758 5.18
6 2 2 8318.0155 7339.2908 -180.0 2.58767 1.76
4 4 4 66318.3073 48329.8823 -0.0 2.47750 0.70
5 5 1 20498.8832 13433.1481 -180.0 2.40353 1.67
7 1 1 147617.6868 94434.5291 0.0 2.40353 15.92
6 4 2 8685.7252 3036.5869 -180.0 2.29372 0.06
5 5 3 96081.1836 8697.4200 0.0 2.23464 -0.30
7 3 1 166624.8115 15538.3167 -0.0 2.23464 -8.92
8 0 0 1.0562944047e6 403595.5303 0.0 2.14558 1.30
7 3 3 67242.3459 39204.4795 -180.0 2.09699 1.95
6 4 4 11863.6231 7716.6912 0.0 2.08152 -0.06
6 6 0 24008.2896 21095.5068 -0.0 2.02287 0.34
8 2 2 9320.6349 8038.0357 -180.0 2.02287 0.97
5 5 5 7010.2114 6176.0288 -0.0 1.98200 0.05
7 5 1 10270.1104 8997.7576 0.0 1.98200 0.28
6 6 2 71773.6601 65966.0296 -180.0 1.96892 4.73
8 4 0 414396.2148 371006.7147 0.0 1.91906 -0.84
7 5 3 172.1680 148.4257 -0.0 1.88406 -0.00
9 1 1 81191.2926 70497.7169 180.0 1.88406 3.04
8 4 2 19402.2805 17725.3745 180.0 1.87281 1.12
6 6 4 29010.8806 30996.7532 -0.0 1.82976 0.28
9 3 1 26881.9357 26817.6268 0.0 1.79934 0.48
8 4 4 160277.5527 154242.3749 0.0 1.75186 4.89
7 5 5 22485.1681 21738.6086 0.0 1.72511 -0.17
7 7 1 26541.0816 25631.1822 -0.0 1.72511 0.90
9 3 3 51545.5965 49667.8619 -0.0 1.72511 4.62
8 6 2 6444.8448 5511.9692 -0.0 1.68313 -0.12
10 2 0 2007.3246 1743.4166 -180.0 1.68313 0.03
7 7 3 7.3921 6.9477 180.0 1.65937 0.00
9 5 1 27797.3348 25992.4545 180.0 1.65937 0.58
10 2 2 14828.3342 14308.8267 -0.0 1.65167 0.73
6 6 6 9094.7685 8929.0435 -0.0 1.65167 0.04
9 5 3 12718.5003 8922.6481 0.0 1.60061 0.33
8 6 4 12705.4107 9259.2473 180.0 1.59370 -0.11
10 4 2 12091.8981 12204.2561 -0.0 1.56691 0.89
7 7 5 795.8444 730.7873 -0.0 1.54768 0.01
11 1 1 6791.7056 6272.7021 -0.0 1.54768 0.07
8 8 0 608962.2491 595371.5577 0.0 1.51715 4.69
9 5 5 19486.5798 18280.0612 -180.0 1.49968 0.45
9 7 1 76333.7487 71689.1394 0.0 1.49968 0.40
11 3 1 11893.2694 11214.1597 -0.0 1.49968 0.54
8 8 2 40998.1230 39246.8611 180.0 1.49399 1.38
10 4 4 12169.4519 11650.1961 180.0 1.49399 0.28
8 6 6 5514.6415 5713.7787 -0.0 1.47185 -0.02
10 6 0 21567.2173 22020.9660 -0.0 1.47185 1.39
9 7 3 3018.4908 2695.9593 -0.0 1.45588 -0.03
11 3 3 10637.8082 9565.2116 -0.0 1.45588 0.68
10 6 2 8186.6120 7060.1085 -0.0 1.45068 0.09
8 8 4 100471.1908 94137.1415 0.0 1.43039 0.59
12 0 0 113631.2903 104200.2808 0.0 1.43039 0.06
7 7 7 51327.8444 45220.2060 180.0 1.41571 0.17
11 5 1 2882.1543 2504.8622 0.0 1.41571 -0.16
10 6 4 22933.8339 18243.9291 -0.0 1.39224 0.45
12 2 2 3903.5253 3077.0369 -0.0 1.39224 0.14
9 7 5 41079.4439 27472.2933 0.0 1.37870 -0.29
11 5 3 1007.8386 691.2539 -180.0 1.37870 0.06
12 4 0 22765.8999 18827.1528 0.0 1.35698 0.25
9 9 1 74802.6924 67218.0564 -180.0 1.34444 1.34
8 8 6 27076.9312 24619.2390 180.0 1.34033 0.34
12 4 2 8980.0412 7914.4038 180.0 1.34033 0.39
10 8 2 2307.4478 1840.6560 -0.0 1.32428 -0.01
9 9 3 34374.2381 33364.2763 0.0 1.31261 0.98
11 5 5 34.4844 33.1013 180.0 1.31261 0.00
11 7 1 2424.3521 2316.4741 -0.0 1.31261 0.15
13 1 1 19107.6169 17524.5597 -180.0 1.31261 0.03
10 6 6 20932.1016 20694.9358 -0.0 1.30879 0.21
12 4 4 12762.9576 9861.0911 180.0 1.29383 0.64
9 7 7 8877.5219 5350.6198 -0.0 1.28294 -0.00
11 7 3 3167.6778 1946.1880 180.0 1.28294 0.02
13 3 1 9548.4757 6053.3525 0.0 1.28294 0.37
10 8 4 18903.4528 11175.3634 180.0 1.27938 -0.14
12 6 2 1812.0200 1115.7157 -0.0 1.26539 -0.02
9 9 5 10737.1332 5031.1032 -180.0 1.25520 -0.01
13 3 3 82.9994 42.2560 180.0 1.25520 0.00
8 8 8 186573.8365 138384.0649 0.0 1.23875 0.47
11 7 5 309.2514 242.8016 -180.0 1.22918 0.01
13 5 1 4995.1021 3904.0132 -180.0 1.22918 -0.14
12 6 4 23787.1873 19413.2585 180.0 1.22604 0.52
10 8 6 34641.5185 29619.4795 -0.0 1.21372 -0.12
10 10 0 45777.7958 39170.8128 -0.0 1.21372 0.23
14 2 0 2799.0018 2385.6211 -0.0 1.21372 -0.02
11 9 1 17300.1375 16390.8118 0.0 1.20472 0.04
13 5 3 262.0250 244.7992 0.0 1.20472 0.02
10 10 2 47517.4711 45423.0014 0.0 1.20176 0.95
14 2 2 35646.5298 33032.9789 -0.0 1.20176 0.94